@<TRIPOS>ATOM
      1  O5'   -8.7715    8.6510   -0.6958   O.3
      2  C5'   -8.4161    9.0619   -2.0175   C.3
      3  C4'   -6.9147    9.0327   -2.0646   C.3
      4  O4'   -6.5073    9.7904   -0.8784   O.3
      5  C3'   -6.1669    7.6692   -2.0997   C.3
      6  O3'   -6.0541    6.9989   -3.4044   O.3
      7  C2'   -4.8293    8.1878   -1.6374   C.3
      8  O2'   -4.0213    8.6234   -2.7148   O.3
      9  C1'   -5.0957    9.4485   -0.7714   C.3
     10   N1   -5.0833    8.9859    0.6685 N.pl3
     11   C2   -3.8833    8.9225    1.2650   C.2
     12   O2   -2.8302    9.2753    0.7849   O.2
     13   N3   -3.9862    8.5224    2.5539 N.pl3
     14   C4   -5.1123    8.0953    3.2336   C.2
     15   O4   -4.9965    7.6635    4.3734   O.2
     16   C5   -6.3228    8.1623    2.4797   C.2
     17   C6   -6.2682    8.6242    1.2332   C.2
     18    V   -4.3612    7.4411   -4.1354   P.3
     19  O1V   -3.9208    8.5175   -5.4370   O.3
     20  O2V   -5.1504    6.4096   -5.5375   O.3
     21  O3V   -3.0632    6.2870   -3.9470   O.3
     22   H1   -9.3302    7.7965   -0.7527     H
     23  H21   -8.8569    9.8971   -2.2523     H
     24  H22   -8.8017    8.3215   -2.5894     H
     25   H3   -6.4928    9.4458   -2.8825     H
     26   H5   -6.8588    6.9663   -1.8029     H
     27   H7   -4.3903    7.3713   -1.1716     H
     28   H9   -4.4429   10.1749   -0.9482     H
     29  H13   -3.0942    8.4757    3.0809     H
     30  H16   -7.1678    7.8655    2.9548     H
     31  H17   -7.1189    8.6606    0.6667     H
@<TRIPOS>BOND
      1     1    22 1
      2     2     3 1
      3     2    23 1
      4     2    24 1
      5     3     4 1
      6     3     5 1
      7     3    23 1
      8     3    24 1
      9     3    25 1
     10     3    26 1
     11     3    31 1
     12     4     9 1
     13     4    25 1
     14     4    28 1
     15     4    31 1
     16     5     6 1
     17     5     7 1
     18     5    25 1
     19     5    26 1
     20     5    27 1
     21     6    20 1
     22     6    26 1
     23     7     8 1
     24     7    27 1
     25     8    19 1
     26     9    28 1
     27    10    11 1
     28    10    17 1
     29    10    31 1
     30    11    12 1
     31    11    13 1
     32    11    14 1
     33    11    16 1
     34    11    17 1
     35    11    28 1
     36    11    29 1
     37    12    13 1
     38    12    28 1
     39    12    29 1
     40    13    14 1
     41    13    15 1
     42    13    16 1
     43    13    29 1
     44    14    15 1
     45    14    16 1
     46    14    29 1
     47    14    30 1
     48    15    29 1
     49    16    17 1
     50    16    30 1
     51    16    31 1
     52    17    30 1
     53    17    31 1
     54    18    19 1
     55    18    20 1
     56    18    21 1
     57    19    20 1
     58    19    21 1
     59    20    21 1
     60    22    23 1
     61    22    24 1
     62    22    31 1
     63    23    24 1
     64    23    25 1
     65    24    25 1
     66    24    26 1
     67    30    31 1
