@<TRIPOS>ATOM
      1  O5'   -9.3579    7.9098   -0.2077   O.3
      2  C5'   -9.0025    8.3207   -1.5294   C.3
      3  C4'   -7.5011    8.2915   -1.5765   C.3
      4  O4'   -7.0937    9.0492   -0.3903   O.3
      5  C3'   -6.7533    6.9280   -1.6116   C.3
      6  O3'   -6.6405    6.2577   -2.9163   O.3
      7  C2'   -5.4157    7.4466   -1.1493   C.3
      8  O2'   -4.6077    7.8822   -2.2267   O.3
      9  C1'   -5.6821    8.7073   -0.2833   C.3
     10   N1   -5.6697    8.2447    1.1566 N.pl3
     11   C2   -4.4697    8.1813    1.7531   C.2
     12   O2   -3.4166    8.5341    1.2730   O.2
     13   N3   -4.5726    7.7812    3.0420 N.pl3
     14   C4   -5.6987    7.3541    3.7217   C.2
     15   O4   -5.5829    6.9223    4.8615   O.2
     16   C5   -6.9092    7.4211    2.9678   C.2
     17   C6   -6.8546    7.8830    1.7213   C.2
     18    V   -4.9476    6.6999   -3.6473   P.3
     19  O1V   -4.5072    7.7763   -4.9489   O.3
     20  O2V   -5.7368    5.6684   -5.0494   O.3
     21  O3V   -3.6496    5.5458   -3.4589   O.3
     22   H1   -9.9166    7.0553   -0.2646     H
     23  H21   -9.4433    9.1559   -1.7642     H
     24  H22   -9.3881    7.5803   -2.1013     H
     25   H3   -7.0792    8.7046   -2.3944     H
     26   H5   -7.4452    6.2251   -1.3148     H
     27   H7   -4.9767    6.6301   -0.6835     H
     28   H9   -5.0293    9.4337   -0.4601     H
     29  H13   -3.6806    7.7345    3.5690     H
     30  H16   -7.7542    7.1243    3.4429     H
     31  H17   -7.7053    7.9194    1.1548     H
@<TRIPOS>BOND
      1     1    22 1
      2     2     3 1
      3     2    23 1
      4     2    24 1
      5     3     4 1
      6     3     5 1
      7     3    23 1
      8     3    24 1
      9     3    25 1
     10     3    26 1
     11     3    31 1
     12     4     9 1
     13     4    25 1
     14     4    28 1
     15     4    31 1
     16     5     6 1
     17     5     7 1
     18     5    25 1
     19     5    26 1
     20     5    27 1
     21     6    20 1
     22     6    26 1
     23     7     8 1
     24     7    27 1
     25     8    19 1
     26     9    28 1
     27    10    11 1
     28    10    17 1
     29    10    31 1
     30    11    12 1
     31    11    13 1
     32    11    14 1
     33    11    16 1
     34    11    17 1
     35    11    28 1
     36    11    29 1
     37    12    13 1
     38    12    28 1
     39    12    29 1
     40    13    14 1
     41    13    15 1
     42    13    16 1
     43    13    29 1
     44    14    15 1
     45    14    16 1
     46    14    29 1
     47    14    30 1
     48    15    29 1
     49    16    17 1
     50    16    30 1
     51    16    31 1
     52    17    30 1
     53    17    31 1
     54    18    19 1
     55    18    20 1
     56    18    21 1
     57    19    20 1
     58    19    21 1
     59    20    21 1
     60    22    23 1
     61    22    24 1
     62    22    31 1
     63    23    24 1
     64    23    25 1
     65    24    25 1
     66    24    26 1
     67    30    31 1
