@<TRIPOS>ATOM
      1  O5'   -9.3591    7.9123   -0.2063   O.3
      2  C5'   -9.0037    8.3232   -1.5280   C.3
      3  C4'   -7.5023    8.2940   -1.5751   C.3
      4  O4'   -7.0949    9.0517   -0.3889   O.3
      5  C3'   -6.7545    6.9305   -1.6102   C.3
      6  O3'   -6.6417    6.2602   -2.9149   O.3
      7  C2'   -5.4169    7.4491   -1.1479   C.3
      8  O2'   -4.6089    7.8847   -2.2253   O.3
      9  C1'   -5.6833    8.7098   -0.2819   C.3
     10   N1   -5.6709    8.2472    1.1580 N.pl3
     11   C2   -4.4709    8.1838    1.7545   C.2
     12   O2   -3.4178    8.5366    1.2744   O.2
     13   N3   -4.5738    7.7837    3.0434 N.pl3
     14   C4   -5.6999    7.3566    3.7231   C.2
     15   O4   -5.5841    6.9248    4.8629   O.2
     16   C5   -6.9104    7.4236    2.9692   C.2
     17   C6   -6.8558    7.8855    1.7227   C.2
     18    V   -4.9488    6.7024   -3.6459   P.3
     19  O1V   -4.5084    7.7788   -4.9475   O.3
     20  O2V   -5.7380    5.6709   -5.0480   O.3
     21  O3V   -3.6508    5.5483   -3.4575   O.3
     22   H1   -9.9178    7.0578   -0.2632     H
     23  H21   -9.4445    9.1584   -1.7628     H
     24  H22   -9.3893    7.5828   -2.0999     H
     25   H3   -7.0804    8.7071   -2.3930     H
     26   H5   -7.4464    6.2276   -1.3134     H
     27   H7   -4.9779    6.6326   -0.6821     H
     28   H9   -5.0305    9.4362   -0.4587     H
     29  H13   -3.6818    7.7370    3.5704     H
     30  H16   -7.7554    7.1268    3.4443     H
     31  H17   -7.7065    7.9219    1.1562     H
@<TRIPOS>BOND
      1     1    22 1
      2     2     3 1
      3     2    23 1
      4     2    24 1
      5     3     4 1
      6     3     5 1
      7     3    23 1
      8     3    24 1
      9     3    25 1
     10     3    26 1
     11     3    31 1
     12     4     9 1
     13     4    25 1
     14     4    28 1
     15     4    31 1
     16     5     6 1
     17     5     7 1
     18     5    25 1
     19     5    26 1
     20     5    27 1
     21     6    20 1
     22     6    26 1
     23     7     8 1
     24     7    27 1
     25     8    19 1
     26     9    28 1
     27    10    11 1
     28    10    17 1
     29    10    31 1
     30    11    12 1
     31    11    13 1
     32    11    14 1
     33    11    16 1
     34    11    17 1
     35    11    28 1
     36    11    29 1
     37    12    13 1
     38    12    28 1
     39    12    29 1
     40    13    14 1
     41    13    15 1
     42    13    16 1
     43    13    29 1
     44    14    15 1
     45    14    16 1
     46    14    29 1
     47    14    30 1
     48    15    29 1
     49    16    17 1
     50    16    30 1
     51    16    31 1
     52    17    30 1
     53    17    31 1
     54    18    19 1
     55    18    20 1
     56    18    21 1
     57    19    20 1
     58    19    21 1
     59    20    21 1
     60    22    23 1
     61    22    24 1
     62    22    31 1
     63    23    24 1
     64    23    25 1
     65    24    25 1
     66    24    26 1
     67    30    31 1
