@<TRIPOS>ATOM
      1  O5'   -9.3577    7.9094   -0.2079   O.3
      2  C5'   -9.0023    8.3203   -1.5296   C.3
      3  C4'   -7.5009    8.2911   -1.5767   C.3
      4  O4'   -7.0935    9.0488   -0.3905   O.3
      5  C3'   -6.7531    6.9276   -1.6118   C.3
      6  O3'   -6.6403    6.2573   -2.9165   O.3
      7  C2'   -5.4155    7.4462   -1.1495   C.3
      8  O2'   -4.6075    7.8818   -2.2269   O.3
      9  C1'   -5.6819    8.7069   -0.2835   C.3
     10   N1   -5.6695    8.2443    1.1564 N.pl3
     11   C2   -4.4695    8.1809    1.7529   C.2
     12   O2   -3.4164    8.5337    1.2728   O.2
     13   N3   -4.5724    7.7808    3.0418 N.pl3
     14   C4   -5.6985    7.3537    3.7215   C.2
     15   O4   -5.5827    6.9219    4.8613   O.2
     16   C5   -6.9090    7.4207    2.9676   C.2
     17   C6   -6.8544    7.8826    1.7211   C.2
     18    V   -4.9474    6.6995   -3.6475   P.3
     19  O1V   -4.5070    7.7759   -4.9491   O.3
     20  O2V   -5.7366    5.6680   -5.0496   O.3
     21  O3V   -3.6494    5.5454   -3.4591   O.3
     22   H1   -9.9164    7.0549   -0.2648     H
     23  H21   -9.4431    9.1555   -1.7644     H
     24  H22   -9.3879    7.5799   -2.1015     H
     25   H3   -7.0790    8.7042   -2.3946     H
     26   H5   -7.4450    6.2247   -1.3150     H
     27   H7   -4.9765    6.6297   -0.6837     H
     28   H9   -5.0291    9.4333   -0.4603     H
     29  H13   -3.6804    7.7341    3.5688     H
     30  H16   -7.7540    7.1239    3.4427     H
     31  H17   -7.7051    7.9190    1.1546     H
@<TRIPOS>BOND
      1     1    22 1
      2     2     3 1
      3     2    23 1
      4     2    24 1
      5     3     4 1
      6     3     5 1
      7     3    23 1
      8     3    24 1
      9     3    25 1
     10     3    26 1
     11     3    31 1
     12     4     9 1
     13     4    25 1
     14     4    28 1
     15     4    31 1
     16     5     6 1
     17     5     7 1
     18     5    25 1
     19     5    26 1
     20     5    27 1
     21     6    20 1
     22     6    26 1
     23     7     8 1
     24     7    27 1
     25     8    19 1
     26     9    28 1
     27    10    11 1
     28    10    17 1
     29    10    31 1
     30    11    12 1
     31    11    13 1
     32    11    14 1
     33    11    16 1
     34    11    17 1
     35    11    28 1
     36    11    29 1
     37    12    13 1
     38    12    28 1
     39    12    29 1
     40    13    14 1
     41    13    15 1
     42    13    16 1
     43    13    29 1
     44    14    15 1
     45    14    16 1
     46    14    29 1
     47    14    30 1
     48    15    29 1
     49    16    17 1
     50    16    30 1
     51    16    31 1
     52    17    30 1
     53    17    31 1
     54    18    19 1
     55    18    20 1
     56    18    21 1
     57    19    20 1
     58    19    21 1
     59    20    21 1
     60    22    23 1
     61    22    24 1
     62    22    31 1
     63    23    24 1
     64    23    25 1
     65    24    25 1
     66    24    26 1
     67    30    31 1
