@<TRIPOS>ATOM
      1  O5'   -9.3580    7.9101   -0.2075   O.3
      2  C5'   -9.0026    8.3210   -1.5292   C.3
      3  C4'   -7.5012    8.2918   -1.5763   C.3
      4  O4'   -7.0938    9.0495   -0.3901   O.3
      5  C3'   -6.7534    6.9283   -1.6114   C.3
      6  O3'   -6.6406    6.2580   -2.9161   O.3
      7  C2'   -5.4158    7.4469   -1.1491   C.3
      8  O2'   -4.6078    7.8825   -2.2265   O.3
      9  C1'   -5.6822    8.7076   -0.2831   C.3
     10   N1   -5.6698    8.2450    1.1568 N.pl3
     11   C2   -4.4698    8.1816    1.7533   C.2
     12   O2   -3.4167    8.5344    1.2732   O.2
     13   N3   -4.5727    7.7815    3.0422 N.pl3
     14   C4   -5.6988    7.3544    3.7219   C.2
     15   O4   -5.5830    6.9226    4.8617   O.2
     16   C5   -6.9093    7.4214    2.9680   C.2
     17   C6   -6.8547    7.8833    1.7215   C.2
     18    V   -4.9477    6.7002   -3.6471   P.3
     19  O1V   -4.5073    7.7766   -4.9487   O.3
     20  O2V   -5.7369    5.6687   -5.0492   O.3
     21  O3V   -3.6497    5.5461   -3.4587   O.3
     22   H1   -9.9167    7.0556   -0.2644     H
     23  H21   -9.4434    9.1562   -1.7640     H
     24  H22   -9.3882    7.5806   -2.1011     H
     25   H3   -7.0793    8.7049   -2.3942     H
     26   H5   -7.4453    6.2254   -1.3146     H
     27   H7   -4.9768    6.6304   -0.6833     H
     28   H9   -5.0294    9.4340   -0.4599     H
     29  H13   -3.6807    7.7348    3.5692     H
     30  H16   -7.7543    7.1246    3.4431     H
     31  H17   -7.7054    7.9197    1.1550     H
@<TRIPOS>BOND
      1     1    22 1
      2     2     3 1
      3     2    23 1
      4     2    24 1
      5     3     4 1
      6     3     5 1
      7     3    23 1
      8     3    24 1
      9     3    25 1
     10     3    26 1
     11     3    31 1
     12     4     9 1
     13     4    25 1
     14     4    28 1
     15     4    31 1
     16     5     6 1
     17     5     7 1
     18     5    25 1
     19     5    26 1
     20     5    27 1
     21     6    20 1
     22     6    26 1
     23     7     8 1
     24     7    27 1
     25     8    19 1
     26     9    28 1
     27    10    11 1
     28    10    17 1
     29    10    31 1
     30    11    12 1
     31    11    13 1
     32    11    14 1
     33    11    16 1
     34    11    17 1
     35    11    28 1
     36    11    29 1
     37    12    13 1
     38    12    28 1
     39    12    29 1
     40    13    14 1
     41    13    15 1
     42    13    16 1
     43    13    29 1
     44    14    15 1
     45    14    16 1
     46    14    29 1
     47    14    30 1
     48    15    29 1
     49    16    17 1
     50    16    30 1
     51    16    31 1
     52    17    30 1
     53    17    31 1
     54    18    19 1
     55    18    20 1
     56    18    21 1
     57    19    20 1
     58    19    21 1
     59    20    21 1
     60    22    23 1
     61    22    24 1
     62    22    31 1
     63    23    24 1
     64    23    25 1
     65    24    25 1
     66    24    26 1
     67    30    31 1
