@<TRIPOS>ATOM
      1  O5'   -9.3567    7.9079   -0.2086   O.3
      2  C5'   -9.0013    8.3188   -1.5303   C.3
      3  C4'   -7.4999    8.2896   -1.5774   C.3
      4  O4'   -7.0925    9.0473   -0.3912   O.3
      5  C3'   -6.7521    6.9261   -1.6125   C.3
      6  O3'   -6.6393    6.2558   -2.9172   O.3
      7  C2'   -5.4145    7.4447   -1.1502   C.3
      8  O2'   -4.6065    7.8803   -2.2276   O.3
      9  C1'   -5.6809    8.7054   -0.2842   C.3
     10   N1   -5.6685    8.2428    1.1557 N.pl3
     11   C2   -4.4685    8.1794    1.7522   C.2
     12   O2   -3.4154    8.5322    1.2721   O.2
     13   N3   -4.5714    7.7793    3.0411 N.pl3
     14   C4   -5.6975    7.3522    3.7208   C.2
     15   O4   -5.5817    6.9204    4.8606   O.2
     16   C5   -6.9080    7.4192    2.9669   C.2
     17   C6   -6.8534    7.8811    1.7204   C.2
     18    V   -4.9464    6.6980   -3.6482   P.3
     19  O1V   -4.5060    7.7744   -4.9498   O.3
     20  O2V   -5.7356    5.6665   -5.0503   O.3
     21  O3V   -3.6484    5.5439   -3.4598   O.3
     22   H1   -9.9154    7.0534   -0.2655     H
     23  H21   -9.4421    9.1540   -1.7651     H
     24  H22   -9.3869    7.5784   -2.1022     H
     25   H3   -7.0780    8.7027   -2.3953     H
     26   H5   -7.4440    6.2232   -1.3157     H
     27   H7   -4.9755    6.6282   -0.6844     H
     28   H9   -5.0281    9.4318   -0.4610     H
     29  H13   -3.6794    7.7326    3.5681     H
     30  H16   -7.7530    7.1224    3.4420     H
     31  H17   -7.7041    7.9175    1.1539     H
@<TRIPOS>BOND
      1     1    22 1
      2     2     3 1
      3     2    23 1
      4     2    24 1
      5     3     4 1
      6     3     5 1
      7     3    23 1
      8     3    24 1
      9     3    25 1
     10     3    26 1
     11     3    31 1
     12     4     9 1
     13     4    25 1
     14     4    28 1
     15     4    31 1
     16     5     6 1
     17     5     7 1
     18     5    25 1
     19     5    26 1
     20     5    27 1
     21     6    20 1
     22     6    26 1
     23     7     8 1
     24     7    27 1
     25     8    19 1
     26     9    28 1
     27    10    11 1
     28    10    17 1
     29    10    31 1
     30    11    12 1
     31    11    13 1
     32    11    14 1
     33    11    16 1
     34    11    17 1
     35    11    28 1
     36    11    29 1
     37    12    13 1
     38    12    28 1
     39    12    29 1
     40    13    14 1
     41    13    15 1
     42    13    16 1
     43    13    29 1
     44    14    15 1
     45    14    16 1
     46    14    29 1
     47    14    30 1
     48    15    29 1
     49    16    17 1
     50    16    30 1
     51    16    31 1
     52    17    30 1
     53    17    31 1
     54    18    19 1
     55    18    20 1
     56    18    21 1
     57    19    20 1
     58    19    21 1
     59    20    21 1
     60    22    23 1
     61    22    24 1
     62    22    31 1
     63    23    24 1
     64    23    25 1
     65    24    25 1
     66    24    26 1
     67    30    31 1
