@<TRIPOS>ATOM
      1  O5'   -9.3563    7.9072   -0.2090   O.3
      2  C5'   -9.0009    8.3181   -1.5307   C.3
      3  C4'   -7.4995    8.2889   -1.5778   C.3
      4  O4'   -7.0921    9.0466   -0.3916   O.3
      5  C3'   -6.7517    6.9254   -1.6129   C.3
      6  O3'   -6.6389    6.2551   -2.9176   O.3
      7  C2'   -5.4141    7.4440   -1.1506   C.3
      8  O2'   -4.6061    7.8796   -2.2280   O.3
      9  C1'   -5.6805    8.7047   -0.2846   C.3
     10   N1   -5.6681    8.2421    1.1553 N.pl3
     11   C2   -4.4681    8.1787    1.7518   C.2
     12   O2   -3.4150    8.5315    1.2717   O.2
     13   N3   -4.5710    7.7786    3.0407 N.pl3
     14   C4   -5.6971    7.3515    3.7204   C.2
     15   O4   -5.5813    6.9197    4.8602   O.2
     16   C5   -6.9076    7.4185    2.9665   C.2
     17   C6   -6.8530    7.8804    1.7200   C.2
     18    V   -4.9460    6.6973   -3.6486   P.3
     19  O1V   -4.5056    7.7737   -4.9502   O.3
     20  O2V   -5.7352    5.6658   -5.0507   O.3
     21  O3V   -3.6480    5.5432   -3.4602   O.3
     22   H1   -9.9150    7.0527   -0.2659     H
     23  H21   -9.4417    9.1533   -1.7655     H
     24  H22   -9.3865    7.5777   -2.1026     H
     25   H3   -7.0776    8.7020   -2.3957     H
     26   H5   -7.4436    6.2225   -1.3161     H
     27   H7   -4.9751    6.6275   -0.6848     H
     28   H9   -5.0277    9.4311   -0.4614     H
     29  H13   -3.6790    7.7319    3.5677     H
     30  H16   -7.7526    7.1217    3.4416     H
     31  H17   -7.7037    7.9168    1.1535     H
@<TRIPOS>BOND
      1     1    22 1
      2     2     3 1
      3     2    23 1
      4     2    24 1
      5     3     4 1
      6     3     5 1
      7     3    23 1
      8     3    24 1
      9     3    25 1
     10     3    26 1
     11     3    31 1
     12     4     9 1
     13     4    25 1
     14     4    28 1
     15     4    31 1
     16     5     6 1
     17     5     7 1
     18     5    25 1
     19     5    26 1
     20     5    27 1
     21     6    20 1
     22     6    26 1
     23     7     8 1
     24     7    27 1
     25     8    19 1
     26     9    28 1
     27    10    11 1
     28    10    17 1
     29    10    31 1
     30    11    12 1
     31    11    13 1
     32    11    14 1
     33    11    16 1
     34    11    17 1
     35    11    28 1
     36    11    29 1
     37    12    13 1
     38    12    28 1
     39    12    29 1
     40    13    14 1
     41    13    15 1
     42    13    16 1
     43    13    29 1
     44    14    15 1
     45    14    16 1
     46    14    29 1
     47    14    30 1
     48    15    29 1
     49    16    17 1
     50    16    30 1
     51    16    31 1
     52    17    30 1
     53    17    31 1
     54    18    19 1
     55    18    20 1
     56    18    21 1
     57    19    20 1
     58    19    21 1
     59    20    21 1
     60    22    23 1
     61    22    24 1
     62    22    31 1
     63    23    24 1
     64    23    25 1
     65    24    25 1
     66    24    26 1
     67    30    31 1
