@<TRIPOS>ATOM
      1  O5'   -9.3592    7.9120   -0.2066   O.3
      2  C5'   -9.0038    8.3229   -1.5283   C.3
      3  C4'   -7.5024    8.2937   -1.5754   C.3
      4  O4'   -7.0950    9.0514   -0.3892   O.3
      5  C3'   -6.7546    6.9302   -1.6105   C.3
      6  O3'   -6.6418    6.2599   -2.9152   O.3
      7  C2'   -5.4170    7.4488   -1.1482   C.3
      8  O2'   -4.6090    7.8844   -2.2256   O.3
      9  C1'   -5.6834    8.7095   -0.2822   C.3
     10   N1   -5.6710    8.2469    1.1577 N.pl3
     11   C2   -4.4710    8.1835    1.7542   C.2
     12   O2   -3.4179    8.5363    1.2741   O.2
     13   N3   -4.5739    7.7834    3.0431 N.pl3
     14   C4   -5.7000    7.3563    3.7228   C.2
     15   O4   -5.5842    6.9245    4.8626   O.2
     16   C5   -6.9105    7.4233    2.9689   C.2
     17   C6   -6.8559    7.8852    1.7224   C.2
     18    V   -4.9489    6.7021   -3.6462   P.3
     19  O1V   -4.5085    7.7785   -4.9478   O.3
     20  O2V   -5.7381    5.6706   -5.0483   O.3
     21  O3V   -3.6509    5.5480   -3.4578   O.3
     22   H1   -9.9179    7.0575   -0.2635     H
     23  H21   -9.4446    9.1581   -1.7631     H
     24  H22   -9.3894    7.5825   -2.1002     H
     25   H3   -7.0805    8.7068   -2.3933     H
     26   H5   -7.4465    6.2273   -1.3137     H
     27   H7   -4.9780    6.6323   -0.6824     H
     28   H9   -5.0306    9.4359   -0.4590     H
     29  H13   -3.6819    7.7367    3.5701     H
     30  H16   -7.7555    7.1265    3.4440     H
     31  H17   -7.7066    7.9216    1.1559     H
@<TRIPOS>BOND
      1     1    22 1
      2     2     3 1
      3     2    23 1
      4     2    24 1
      5     3     4 1
      6     3     5 1
      7     3    23 1
      8     3    24 1
      9     3    25 1
     10     3    26 1
     11     3    31 1
     12     4     9 1
     13     4    25 1
     14     4    28 1
     15     4    31 1
     16     5     6 1
     17     5     7 1
     18     5    25 1
     19     5    26 1
     20     5    27 1
     21     6    20 1
     22     6    26 1
     23     7     8 1
     24     7    27 1
     25     8    19 1
     26     9    28 1
     27    10    11 1
     28    10    17 1
     29    10    31 1
     30    11    12 1
     31    11    13 1
     32    11    14 1
     33    11    16 1
     34    11    17 1
     35    11    28 1
     36    11    29 1
     37    12    13 1
     38    12    28 1
     39    12    29 1
     40    13    14 1
     41    13    15 1
     42    13    16 1
     43    13    29 1
     44    14    15 1
     45    14    16 1
     46    14    29 1
     47    14    30 1
     48    15    29 1
     49    16    17 1
     50    16    30 1
     51    16    31 1
     52    17    30 1
     53    17    31 1
     54    18    19 1
     55    18    20 1
     56    18    21 1
     57    19    20 1
     58    19    21 1
     59    20    21 1
     60    22    23 1
     61    22    24 1
     62    22    31 1
     63    23    24 1
     64    23    25 1
     65    24    25 1
     66    24    26 1
     67    30    31 1
