@<TRIPOS>ATOM
      1  O5'   -9.3559    7.9075   -0.2088   O.3
      2  C5'   -9.0005    8.3184   -1.5305   C.3
      3  C4'   -7.4991    8.2892   -1.5776   C.3
      4  O4'   -7.0917    9.0469   -0.3914   O.3
      5  C3'   -6.7513    6.9257   -1.6127   C.3
      6  O3'   -6.6385    6.2554   -2.9174   O.3
      7  C2'   -5.4137    7.4443   -1.1504   C.3
      8  O2'   -4.6057    7.8799   -2.2278   O.3
      9  C1'   -5.6801    8.7050   -0.2844   C.3
     10   N1   -5.6677    8.2424    1.1555 N.pl3
     11   C2   -4.4677    8.1790    1.7520   C.2
     12   O2   -3.4146    8.5318    1.2719   O.2
     13   N3   -4.5706    7.7789    3.0409 N.pl3
     14   C4   -5.6967    7.3518    3.7206   C.2
     15   O4   -5.5809    6.9200    4.8604   O.2
     16   C5   -6.9072    7.4188    2.9667   C.2
     17   C6   -6.8526    7.8807    1.7202   C.2
     18    V   -4.9456    6.6976   -3.6484   P.3
     19  O1V   -4.5052    7.7740   -4.9500   O.3
     20  O2V   -5.7348    5.6661   -5.0505   O.3
     21  O3V   -3.6476    5.5435   -3.4600   O.3
     22   H1   -9.9146    7.0530   -0.2657     H
     23  H21   -9.4413    9.1536   -1.7653     H
     24  H22   -9.3861    7.5780   -2.1024     H
     25   H3   -7.0772    8.7023   -2.3955     H
     26   H5   -7.4432    6.2228   -1.3159     H
     27   H7   -4.9747    6.6278   -0.6846     H
     28   H9   -5.0273    9.4314   -0.4612     H
     29  H13   -3.6786    7.7322    3.5679     H
     30  H16   -7.7522    7.1220    3.4418     H
     31  H17   -7.7033    7.9171    1.1537     H
@<TRIPOS>BOND
      1     1    22 1
      2     2     3 1
      3     2    23 1
      4     2    24 1
      5     3     4 1
      6     3     5 1
      7     3    23 1
      8     3    24 1
      9     3    25 1
     10     3    26 1
     11     3    31 1
     12     4     9 1
     13     4    25 1
     14     4    28 1
     15     4    31 1
     16     5     6 1
     17     5     7 1
     18     5    25 1
     19     5    26 1
     20     5    27 1
     21     6    20 1
     22     6    26 1
     23     7     8 1
     24     7    27 1
     25     8    19 1
     26     9    28 1
     27    10    11 1
     28    10    17 1
     29    10    31 1
     30    11    12 1
     31    11    13 1
     32    11    14 1
     33    11    16 1
     34    11    17 1
     35    11    28 1
     36    11    29 1
     37    12    13 1
     38    12    28 1
     39    12    29 1
     40    13    14 1
     41    13    15 1
     42    13    16 1
     43    13    29 1
     44    14    15 1
     45    14    16 1
     46    14    29 1
     47    14    30 1
     48    15    29 1
     49    16    17 1
     50    16    30 1
     51    16    31 1
     52    17    30 1
     53    17    31 1
     54    18    19 1
     55    18    20 1
     56    18    21 1
     57    19    20 1
     58    19    21 1
     59    20    21 1
     60    22    23 1
     61    22    24 1
     62    22    31 1
     63    23    24 1
     64    23    25 1
     65    24    25 1
     66    24    26 1
     67    30    31 1
