@<TRIPOS>ATOM
      1  O5'   -9.3559    7.9064   -0.2095   O.3
      2  C5'   -9.0005    8.3173   -1.5312   C.3
      3  C4'   -7.4991    8.2881   -1.5783   C.3
      4  O4'   -7.0917    9.0458   -0.3921   O.3
      5  C3'   -6.7513    6.9246   -1.6134   C.3
      6  O3'   -6.6385    6.2543   -2.9181   O.3
      7  C2'   -5.4137    7.4432   -1.1511   C.3
      8  O2'   -4.6057    7.8788   -2.2285   O.3
      9  C1'   -5.6801    8.7039   -0.2851   C.3
     10   N1   -5.6677    8.2413    1.1548 N.pl3
     11   C2   -4.4677    8.1779    1.7513   C.2
     12   O2   -3.4146    8.5307    1.2712   O.2
     13   N3   -4.5706    7.7778    3.0402 N.pl3
     14   C4   -5.6967    7.3507    3.7199   C.2
     15   O4   -5.5809    6.9189    4.8597   O.2
     16   C5   -6.9072    7.4177    2.9660   C.2
     17   C6   -6.8526    7.8796    1.7195   C.2
     18    V   -4.9456    6.6965   -3.6491   P.3
     19  O1V   -4.5052    7.7729   -4.9507   O.3
     20  O2V   -5.7348    5.6650   -5.0512   O.3
     21  O3V   -3.6476    5.5424   -3.4607   O.3
     22   H1   -9.9146    7.0519   -0.2664     H
     23  H21   -9.4413    9.1525   -1.7660     H
     24  H22   -9.3861    7.5769   -2.1031     H
     25   H3   -7.0772    8.7012   -2.3962     H
     26   H5   -7.4432    6.2217   -1.3166     H
     27   H7   -4.9747    6.6267   -0.6853     H
     28   H9   -5.0273    9.4303   -0.4619     H
     29  H13   -3.6786    7.7311    3.5672     H
     30  H16   -7.7522    7.1209    3.4411     H
     31  H17   -7.7033    7.9160    1.1530     H
@<TRIPOS>BOND
      1     1    22 1
      2     2     3 1
      3     2    23 1
      4     2    24 1
      5     3     4 1
      6     3     5 1
      7     3    23 1
      8     3    24 1
      9     3    25 1
     10     3    26 1
     11     3    31 1
     12     4     9 1
     13     4    25 1
     14     4    28 1
     15     4    31 1
     16     5     6 1
     17     5     7 1
     18     5    25 1
     19     5    26 1
     20     5    27 1
     21     6    20 1
     22     6    26 1
     23     7     8 1
     24     7    27 1
     25     8    19 1
     26     9    28 1
     27    10    11 1
     28    10    17 1
     29    10    31 1
     30    11    12 1
     31    11    13 1
     32    11    14 1
     33    11    16 1
     34    11    17 1
     35    11    28 1
     36    11    29 1
     37    12    13 1
     38    12    28 1
     39    12    29 1
     40    13    14 1
     41    13    15 1
     42    13    16 1
     43    13    29 1
     44    14    15 1
     45    14    16 1
     46    14    29 1
     47    14    30 1
     48    15    29 1
     49    16    17 1
     50    16    30 1
     51    16    31 1
     52    17    30 1
     53    17    31 1
     54    18    19 1
     55    18    20 1
     56    18    21 1
     57    19    20 1
     58    19    21 1
     59    20    21 1
     60    22    23 1
     61    22    24 1
     62    22    31 1
     63    23    24 1
     64    23    25 1
     65    24    25 1
     66    24    26 1
     67    30    31 1
