@<TRIPOS>ATOM
      1  O5'   -9.3593    7.9122   -0.2065   O.3
      2  C5'   -9.0039    8.3231   -1.5282   C.3
      3  C4'   -7.5025    8.2939   -1.5753   C.3
      4  O4'   -7.0951    9.0516   -0.3891   O.3
      5  C3'   -6.7547    6.9304   -1.6104   C.3
      6  O3'   -6.6419    6.2601   -2.9151   O.3
      7  C2'   -5.4171    7.4490   -1.1481   C.3
      8  O2'   -4.6091    7.8846   -2.2255   O.3
      9  C1'   -5.6835    8.7097   -0.2821   C.3
     10   N1   -5.6711    8.2471    1.1578 N.pl3
     11   C2   -4.4711    8.1837    1.7543   C.2
     12   O2   -3.4180    8.5365    1.2742   O.2
     13   N3   -4.5740    7.7836    3.0432 N.pl3
     14   C4   -5.7001    7.3565    3.7229   C.2
     15   O4   -5.5843    6.9247    4.8627   O.2
     16   C5   -6.9106    7.4235    2.9690   C.2
     17   C6   -6.8560    7.8854    1.7225   C.2
     18    V   -4.9490    6.7023   -3.6461   P.3
     19  O1V   -4.5086    7.7787   -4.9477   O.3
     20  O2V   -5.7382    5.6708   -5.0482   O.3
     21  O3V   -3.6510    5.5482   -3.4577   O.3
     22   H1   -9.9180    7.0577   -0.2634     H
     23  H21   -9.4447    9.1583   -1.7630     H
     24  H22   -9.3895    7.5827   -2.1001     H
     25   H3   -7.0806    8.7070   -2.3932     H
     26   H5   -7.4466    6.2275   -1.3136     H
     27   H7   -4.9781    6.6325   -0.6823     H
     28   H9   -5.0307    9.4361   -0.4589     H
     29  H13   -3.6820    7.7369    3.5702     H
     30  H16   -7.7556    7.1267    3.4441     H
     31  H17   -7.7067    7.9218    1.1560     H
@<TRIPOS>BOND
      1     1    22 1
      2     2     3 1
      3     2    23 1
      4     2    24 1
      5     3     4 1
      6     3     5 1
      7     3    23 1
      8     3    24 1
      9     3    25 1
     10     3    26 1
     11     3    31 1
     12     4     9 1
     13     4    25 1
     14     4    28 1
     15     4    31 1
     16     5     6 1
     17     5     7 1
     18     5    25 1
     19     5    26 1
     20     5    27 1
     21     6    20 1
     22     6    26 1
     23     7     8 1
     24     7    27 1
     25     8    19 1
     26     9    28 1
     27    10    11 1
     28    10    17 1
     29    10    31 1
     30    11    12 1
     31    11    13 1
     32    11    14 1
     33    11    16 1
     34    11    17 1
     35    11    28 1
     36    11    29 1
     37    12    13 1
     38    12    28 1
     39    12    29 1
     40    13    14 1
     41    13    15 1
     42    13    16 1
     43    13    29 1
     44    14    15 1
     45    14    16 1
     46    14    29 1
     47    14    30 1
     48    15    29 1
     49    16    17 1
     50    16    30 1
     51    16    31 1
     52    17    30 1
     53    17    31 1
     54    18    19 1
     55    18    20 1
     56    18    21 1
     57    19    20 1
     58    19    21 1
     59    20    21 1
     60    22    23 1
     61    22    24 1
     62    22    31 1
     63    23    24 1
     64    23    25 1
     65    24    25 1
     66    24    26 1
     67    30    31 1
