@<TRIPOS>ATOM
      1  O5'   -9.3559    7.9065   -0.2094   O.3
      2  C5'   -9.0005    8.3174   -1.5311   C.3
      3  C4'   -7.4991    8.2882   -1.5782   C.3
      4  O4'   -7.0917    9.0459   -0.3920   O.3
      5  C3'   -6.7513    6.9247   -1.6133   C.3
      6  O3'   -6.6385    6.2544   -2.9180   O.3
      7  C2'   -5.4137    7.4433   -1.1510   C.3
      8  O2'   -4.6057    7.8789   -2.2284   O.3
      9  C1'   -5.6801    8.7040   -0.2850   C.3
     10   N1   -5.6677    8.2414    1.1549 N.pl3
     11   C2   -4.4677    8.1780    1.7514   C.2
     12   O2   -3.4146    8.5308    1.2713   O.2
     13   N3   -4.5706    7.7779    3.0403 N.pl3
     14   C4   -5.6967    7.3508    3.7200   C.2
     15   O4   -5.5809    6.9190    4.8598   O.2
     16   C5   -6.9072    7.4178    2.9661   C.2
     17   C6   -6.8526    7.8797    1.7196   C.2
     18    V   -4.9456    6.6966   -3.6490   P.3
     19  O1V   -4.5052    7.7730   -4.9506   O.3
     20  O2V   -5.7348    5.6651   -5.0511   O.3
     21  O3V   -3.6476    5.5425   -3.4606   O.3
     22   H1   -9.9146    7.0520   -0.2663     H
     23  H21   -9.4413    9.1526   -1.7659     H
     24  H22   -9.3861    7.5770   -2.1030     H
     25   H3   -7.0772    8.7013   -2.3961     H
     26   H5   -7.4432    6.2218   -1.3165     H
     27   H7   -4.9747    6.6268   -0.6852     H
     28   H9   -5.0273    9.4304   -0.4618     H
     29  H13   -3.6786    7.7312    3.5673     H
     30  H16   -7.7522    7.1210    3.4412     H
     31  H17   -7.7033    7.9161    1.1531     H
@<TRIPOS>BOND
      1     1    22 1
      2     2     3 1
      3     2    23 1
      4     2    24 1
      5     3     4 1
      6     3     5 1
      7     3    23 1
      8     3    24 1
      9     3    25 1
     10     3    26 1
     11     3    31 1
     12     4     9 1
     13     4    25 1
     14     4    28 1
     15     4    31 1
     16     5     6 1
     17     5     7 1
     18     5    25 1
     19     5    26 1
     20     5    27 1
     21     6    20 1
     22     6    26 1
     23     7     8 1
     24     7    27 1
     25     8    19 1
     26     9    28 1
     27    10    11 1
     28    10    17 1
     29    10    31 1
     30    11    12 1
     31    11    13 1
     32    11    14 1
     33    11    16 1
     34    11    17 1
     35    11    28 1
     36    11    29 1
     37    12    13 1
     38    12    28 1
     39    12    29 1
     40    13    14 1
     41    13    15 1
     42    13    16 1
     43    13    29 1
     44    14    15 1
     45    14    16 1
     46    14    29 1
     47    14    30 1
     48    15    29 1
     49    16    17 1
     50    16    30 1
     51    16    31 1
     52    17    30 1
     53    17    31 1
     54    18    19 1
     55    18    20 1
     56    18    21 1
     57    19    20 1
     58    19    21 1
     59    20    21 1
     60    22    23 1
     61    22    24 1
     62    22    31 1
     63    23    24 1
     64    23    25 1
     65    24    25 1
     66    24    26 1
     67    30    31 1
