@<TRIPOS>ATOM
      1  O5'   -9.3586    7.9109   -0.2071   O.3
      2  C5'   -9.0032    8.3218   -1.5288   C.3
      3  C4'   -7.5018    8.2926   -1.5759   C.3
      4  O4'   -7.0944    9.0503   -0.3897   O.3
      5  C3'   -6.7540    6.9291   -1.6110   C.3
      6  O3'   -6.6412    6.2588   -2.9157   O.3
      7  C2'   -5.4164    7.4477   -1.1487   C.3
      8  O2'   -4.6084    7.8833   -2.2261   O.3
      9  C1'   -5.6828    8.7084   -0.2827   C.3
     10   N1   -5.6704    8.2458    1.1572 N.pl3
     11   C2   -4.4704    8.1824    1.7537   C.2
     12   O2   -3.4173    8.5352    1.2736   O.2
     13   N3   -4.5733    7.7823    3.0426 N.pl3
     14   C4   -5.6994    7.3552    3.7223   C.2
     15   O4   -5.5836    6.9234    4.8621   O.2
     16   C5   -6.9099    7.4222    2.9684   C.2
     17   C6   -6.8553    7.8841    1.7219   C.2
     18    V   -4.9483    6.7010   -3.6467   P.3
     19  O1V   -4.5079    7.7774   -4.9483   O.3
     20  O2V   -5.7375    5.6695   -5.0488   O.3
     21  O3V   -3.6503    5.5469   -3.4583   O.3
     22   H1   -9.9173    7.0564   -0.2640     H
     23  H21   -9.4440    9.1570   -1.7636     H
     24  H22   -9.3888    7.5814   -2.1007     H
     25   H3   -7.0799    8.7057   -2.3938     H
     26   H5   -7.4459    6.2262   -1.3142     H
     27   H7   -4.9774    6.6312   -0.6829     H
     28   H9   -5.0300    9.4348   -0.4595     H
     29  H13   -3.6813    7.7356    3.5696     H
     30  H16   -7.7549    7.1254    3.4435     H
     31  H17   -7.7060    7.9205    1.1554     H
@<TRIPOS>BOND
      1     1    22 1
      2     2     3 1
      3     2    23 1
      4     2    24 1
      5     3     4 1
      6     3     5 1
      7     3    23 1
      8     3    24 1
      9     3    25 1
     10     3    26 1
     11     3    31 1
     12     4     9 1
     13     4    25 1
     14     4    28 1
     15     4    31 1
     16     5     6 1
     17     5     7 1
     18     5    25 1
     19     5    26 1
     20     5    27 1
     21     6    20 1
     22     6    26 1
     23     7     8 1
     24     7    27 1
     25     8    19 1
     26     9    28 1
     27    10    11 1
     28    10    17 1
     29    10    31 1
     30    11    12 1
     31    11    13 1
     32    11    14 1
     33    11    16 1
     34    11    17 1
     35    11    28 1
     36    11    29 1
     37    12    13 1
     38    12    28 1
     39    12    29 1
     40    13    14 1
     41    13    15 1
     42    13    16 1
     43    13    29 1
     44    14    15 1
     45    14    16 1
     46    14    29 1
     47    14    30 1
     48    15    29 1
     49    16    17 1
     50    16    30 1
     51    16    31 1
     52    17    30 1
     53    17    31 1
     54    18    19 1
     55    18    20 1
     56    18    21 1
     57    19    20 1
     58    19    21 1
     59    20    21 1
     60    22    23 1
     61    22    24 1
     62    22    31 1
     63    23    24 1
     64    23    25 1
     65    24    25 1
     66    24    26 1
     67    30    31 1
