@<TRIPOS>ATOM
      1  O5'   -9.3540    7.9036   -0.2109   O.3
      2  C5'   -8.9986    8.3145   -1.5326   C.3
      3  C4'   -7.4972    8.2853   -1.5797   C.3
      4  O4'   -7.0898    9.0430   -0.3935   O.3
      5  C3'   -6.7494    6.9218   -1.6148   C.3
      6  O3'   -6.6366    6.2515   -2.9195   O.3
      7  C2'   -5.4118    7.4404   -1.1525   C.3
      8  O2'   -4.6038    7.8760   -2.2299   O.3
      9  C1'   -5.6782    8.7011   -0.2865   C.3
     10   N1   -5.6658    8.2385    1.1534 N.pl3
     11   C2   -4.4658    8.1751    1.7499   C.2
     12   O2   -3.4127    8.5279    1.2698   O.2
     13   N3   -4.5687    7.7750    3.0388 N.pl3
     14   C4   -5.6948    7.3479    3.7185   C.2
     15   O4   -5.5790    6.9161    4.8583   O.2
     16   C5   -6.9053    7.4149    2.9646   C.2
     17   C6   -6.8507    7.8768    1.7181   C.2
     18    V   -4.9437    6.6937   -3.6505   P.3
     19  O1V   -4.5033    7.7701   -4.9521   O.3
     20  O2V   -5.7329    5.6622   -5.0526   O.3
     21  O3V   -3.6457    5.5396   -3.4621   O.3
     22   H1   -9.9127    7.0491   -0.2678     H
     23  H21   -9.4394    9.1497   -1.7674     H
     24  H22   -9.3842    7.5741   -2.1045     H
     25   H3   -7.0753    8.6984   -2.3976     H
     26   H5   -7.4413    6.2189   -1.3180     H
     27   H7   -4.9728    6.6239   -0.6867     H
     28   H9   -5.0254    9.4275   -0.4633     H
     29  H13   -3.6767    7.7283    3.5658     H
     30  H16   -7.7503    7.1181    3.4397     H
     31  H17   -7.7014    7.9132    1.1516     H
@<TRIPOS>BOND
      1     1    22 1
      2     2     3 1
      3     2    23 1
      4     2    24 1
      5     3     4 1
      6     3     5 1
      7     3    23 1
      8     3    24 1
      9     3    25 1
     10     3    26 1
     11     3    31 1
     12     4     9 1
     13     4    25 1
     14     4    28 1
     15     4    31 1
     16     5     6 1
     17     5     7 1
     18     5    25 1
     19     5    26 1
     20     5    27 1
     21     6    20 1
     22     6    26 1
     23     7     8 1
     24     7    27 1
     25     8    19 1
     26     9    28 1
     27    10    11 1
     28    10    17 1
     29    10    31 1
     30    11    12 1
     31    11    13 1
     32    11    14 1
     33    11    16 1
     34    11    17 1
     35    11    28 1
     36    11    29 1
     37    12    13 1
     38    12    28 1
     39    12    29 1
     40    13    14 1
     41    13    15 1
     42    13    16 1
     43    13    29 1
     44    14    15 1
     45    14    16 1
     46    14    29 1
     47    14    30 1
     48    15    29 1
     49    16    17 1
     50    16    30 1
     51    16    31 1
     52    17    30 1
     53    17    31 1
     54    18    19 1
     55    18    20 1
     56    18    21 1
     57    19    20 1
     58    19    21 1
     59    20    21 1
     60    22    23 1
     61    22    24 1
     62    22    31 1
     63    23    24 1
     64    23    25 1
     65    24    25 1
     66    24    26 1
     67    30    31 1
