@<TRIPOS>ATOM
      1  O5'   -9.3590    7.9117   -0.2067   O.3
      2  C5'   -9.0036    8.3226   -1.5284   C.3
      3  C4'   -7.5022    8.2934   -1.5755   C.3
      4  O4'   -7.0948    9.0511   -0.3893   O.3
      5  C3'   -6.7544    6.9299   -1.6106   C.3
      6  O3'   -6.6416    6.2596   -2.9153   O.3
      7  C2'   -5.4168    7.4485   -1.1483   C.3
      8  O2'   -4.6088    7.8841   -2.2257   O.3
      9  C1'   -5.6832    8.7092   -0.2823   C.3
     10   N1   -5.6708    8.2466    1.1576 N.pl3
     11   C2   -4.4708    8.1832    1.7541   C.2
     12   O2   -3.4177    8.5360    1.2740   O.2
     13   N3   -4.5737    7.7831    3.0430 N.pl3
     14   C4   -5.6998    7.3560    3.7227   C.2
     15   O4   -5.5840    6.9242    4.8625   O.2
     16   C5   -6.9103    7.4230    2.9688   C.2
     17   C6   -6.8557    7.8849    1.7223   C.2
     18    V   -4.9487    6.7018   -3.6463   P.3
     19  O1V   -4.5083    7.7782   -4.9479   O.3
     20  O2V   -5.7379    5.6703   -5.0484   O.3
     21  O3V   -3.6507    5.5477   -3.4579   O.3
     22   H1   -9.9177    7.0572   -0.2636     H
     23  H21   -9.4444    9.1578   -1.7632     H
     24  H22   -9.3892    7.5822   -2.1003     H
     25   H3   -7.0803    8.7065   -2.3934     H
     26   H5   -7.4463    6.2270   -1.3138     H
     27   H7   -4.9778    6.6320   -0.6825     H
     28   H9   -5.0304    9.4356   -0.4591     H
     29  H13   -3.6817    7.7364    3.5700     H
     30  H16   -7.7553    7.1262    3.4439     H
     31  H17   -7.7064    7.9213    1.1558     H
@<TRIPOS>BOND
      1     1    22 1
      2     2     3 1
      3     2    23 1
      4     2    24 1
      5     3     4 1
      6     3     5 1
      7     3    23 1
      8     3    24 1
      9     3    25 1
     10     3    26 1
     11     3    31 1
     12     4     9 1
     13     4    25 1
     14     4    28 1
     15     4    31 1
     16     5     6 1
     17     5     7 1
     18     5    25 1
     19     5    26 1
     20     5    27 1
     21     6    20 1
     22     6    26 1
     23     7     8 1
     24     7    27 1
     25     8    19 1
     26     9    28 1
     27    10    11 1
     28    10    17 1
     29    10    31 1
     30    11    12 1
     31    11    13 1
     32    11    14 1
     33    11    16 1
     34    11    17 1
     35    11    28 1
     36    11    29 1
     37    12    13 1
     38    12    28 1
     39    12    29 1
     40    13    14 1
     41    13    15 1
     42    13    16 1
     43    13    29 1
     44    14    15 1
     45    14    16 1
     46    14    29 1
     47    14    30 1
     48    15    29 1
     49    16    17 1
     50    16    30 1
     51    16    31 1
     52    17    30 1
     53    17    31 1
     54    18    19 1
     55    18    20 1
     56    18    21 1
     57    19    20 1
     58    19    21 1
     59    20    21 1
     60    22    23 1
     61    22    24 1
     62    22    31 1
     63    23    24 1
     64    23    25 1
     65    24    25 1
     66    24    26 1
     67    30    31 1
