@<TRIPOS>ATOM
      1  O5'   -9.3596    7.9126   -0.2062   O.3
      2  C5'   -9.0042    8.3235   -1.5279   C.3
      3  C4'   -7.5028    8.2943   -1.5750   C.3
      4  O4'   -7.0954    9.0520   -0.3888   O.3
      5  C3'   -6.7550    6.9308   -1.6101   C.3
      6  O3'   -6.6422    6.2605   -2.9148   O.3
      7  C2'   -5.4174    7.4494   -1.1478   C.3
      8  O2'   -4.6094    7.8850   -2.2252   O.3
      9  C1'   -5.6838    8.7101   -0.2818   C.3
     10   N1   -5.6714    8.2475    1.1581 N.pl3
     11   C2   -4.4714    8.1841    1.7546   C.2
     12   O2   -3.4183    8.5369    1.2745   O.2
     13   N3   -4.5743    7.7840    3.0435 N.pl3
     14   C4   -5.7004    7.3569    3.7232   C.2
     15   O4   -5.5846    6.9251    4.8630   O.2
     16   C5   -6.9109    7.4239    2.9693   C.2
     17   C6   -6.8563    7.8858    1.7228   C.2
     18    V   -4.9493    6.7027   -3.6458   P.3
     19  O1V   -4.5089    7.7791   -4.9474   O.3
     20  O2V   -5.7385    5.6712   -5.0479   O.3
     21  O3V   -3.6513    5.5486   -3.4574   O.3
     22   H1   -9.9183    7.0581   -0.2631     H
     23  H21   -9.4450    9.1587   -1.7627     H
     24  H22   -9.3898    7.5831   -2.0998     H
     25   H3   -7.0809    8.7074   -2.3929     H
     26   H5   -7.4469    6.2279   -1.3133     H
     27   H7   -4.9784    6.6329   -0.6820     H
     28   H9   -5.0310    9.4365   -0.4586     H
     29  H13   -3.6823    7.7373    3.5705     H
     30  H16   -7.7559    7.1271    3.4444     H
     31  H17   -7.7070    7.9222    1.1563     H
@<TRIPOS>BOND
      1     1    22 1
      2     2     3 1
      3     2    23 1
      4     2    24 1
      5     3     4 1
      6     3     5 1
      7     3    23 1
      8     3    24 1
      9     3    25 1
     10     3    26 1
     11     3    31 1
     12     4     9 1
     13     4    25 1
     14     4    28 1
     15     4    31 1
     16     5     6 1
     17     5     7 1
     18     5    25 1
     19     5    26 1
     20     5    27 1
     21     6    20 1
     22     6    26 1
     23     7     8 1
     24     7    27 1
     25     8    19 1
     26     9    28 1
     27    10    11 1
     28    10    17 1
     29    10    31 1
     30    11    12 1
     31    11    13 1
     32    11    14 1
     33    11    16 1
     34    11    17 1
     35    11    28 1
     36    11    29 1
     37    12    13 1
     38    12    28 1
     39    12    29 1
     40    13    14 1
     41    13    15 1
     42    13    16 1
     43    13    29 1
     44    14    15 1
     45    14    16 1
     46    14    29 1
     47    14    30 1
     48    15    29 1
     49    16    17 1
     50    16    30 1
     51    16    31 1
     52    17    30 1
     53    17    31 1
     54    18    19 1
     55    18    20 1
     56    18    21 1
     57    19    20 1
     58    19    21 1
     59    20    21 1
     60    22    23 1
     61    22    24 1
     62    22    31 1
     63    23    24 1
     64    23    25 1
     65    24    25 1
     66    24    26 1
     67    30    31 1
