@<TRIPOS>ATOM
      1  O5'   -9.3583    7.9105   -0.2073   O.3
      2  C5'   -9.0029    8.3214   -1.5290   C.3
      3  C4'   -7.5015    8.2922   -1.5761   C.3
      4  O4'   -7.0941    9.0499   -0.3899   O.3
      5  C3'   -6.7537    6.9287   -1.6112   C.3
      6  O3'   -6.6409    6.2584   -2.9159   O.3
      7  C2'   -5.4161    7.4473   -1.1489   C.3
      8  O2'   -4.6081    7.8829   -2.2263   O.3
      9  C1'   -5.6825    8.7080   -0.2829   C.3
     10   N1   -5.6701    8.2454    1.1570 N.pl3
     11   C2   -4.4701    8.1820    1.7535   C.2
     12   O2   -3.4170    8.5348    1.2734   O.2
     13   N3   -4.5730    7.7819    3.0424 N.pl3
     14   C4   -5.6991    7.3548    3.7221   C.2
     15   O4   -5.5833    6.9230    4.8619   O.2
     16   C5   -6.9096    7.4218    2.9682   C.2
     17   C6   -6.8550    7.8837    1.7217   C.2
     18    V   -4.9480    6.7006   -3.6469   P.3
     19  O1V   -4.5076    7.7770   -4.9485   O.3
     20  O2V   -5.7372    5.6691   -5.0490   O.3
     21  O3V   -3.6500    5.5465   -3.4585   O.3
     22   H1   -9.9170    7.0560   -0.2642     H
     23  H21   -9.4437    9.1566   -1.7638     H
     24  H22   -9.3885    7.5810   -2.1009     H
     25   H3   -7.0796    8.7053   -2.3940     H
     26   H5   -7.4456    6.2258   -1.3144     H
     27   H7   -4.9771    6.6308   -0.6831     H
     28   H9   -5.0297    9.4344   -0.4597     H
     29  H13   -3.6810    7.7352    3.5694     H
     30  H16   -7.7546    7.1250    3.4433     H
     31  H17   -7.7057    7.9201    1.1552     H
@<TRIPOS>BOND
      1     1    22 1
      2     2     3 1
      3     2    23 1
      4     2    24 1
      5     3     4 1
      6     3     5 1
      7     3    23 1
      8     3    24 1
      9     3    25 1
     10     3    26 1
     11     3    31 1
     12     4     9 1
     13     4    25 1
     14     4    28 1
     15     4    31 1
     16     5     6 1
     17     5     7 1
     18     5    25 1
     19     5    26 1
     20     5    27 1
     21     6    20 1
     22     6    26 1
     23     7     8 1
     24     7    27 1
     25     8    19 1
     26     9    28 1
     27    10    11 1
     28    10    17 1
     29    10    31 1
     30    11    12 1
     31    11    13 1
     32    11    14 1
     33    11    16 1
     34    11    17 1
     35    11    28 1
     36    11    29 1
     37    12    13 1
     38    12    28 1
     39    12    29 1
     40    13    14 1
     41    13    15 1
     42    13    16 1
     43    13    29 1
     44    14    15 1
     45    14    16 1
     46    14    29 1
     47    14    30 1
     48    15    29 1
     49    16    17 1
     50    16    30 1
     51    16    31 1
     52    17    30 1
     53    17    31 1
     54    18    19 1
     55    18    20 1
     56    18    21 1
     57    19    20 1
     58    19    21 1
     59    20    21 1
     60    22    23 1
     61    22    24 1
     62    22    31 1
     63    23    24 1
     64    23    25 1
     65    24    25 1
     66    24    26 1
     67    30    31 1
