@<TRIPOS>ATOM
      1  O5'   -9.3561    7.9073   -0.2089   O.3
      2  C5'   -9.0007    8.3182   -1.5306   C.3
      3  C4'   -7.4993    8.2890   -1.5777   C.3
      4  O4'   -7.0919    9.0467   -0.3915   O.3
      5  C3'   -6.7515    6.9255   -1.6128   C.3
      6  O3'   -6.6387    6.2552   -2.9175   O.3
      7  C2'   -5.4139    7.4441   -1.1505   C.3
      8  O2'   -4.6059    7.8797   -2.2279   O.3
      9  C1'   -5.6803    8.7048   -0.2845   C.3
     10   N1   -5.6679    8.2422    1.1554 N.pl3
     11   C2   -4.4679    8.1788    1.7519   C.2
     12   O2   -3.4148    8.5316    1.2718   O.2
     13   N3   -4.5708    7.7787    3.0408 N.pl3
     14   C4   -5.6969    7.3516    3.7205   C.2
     15   O4   -5.5811    6.9198    4.8603   O.2
     16   C5   -6.9074    7.4186    2.9666   C.2
     17   C6   -6.8528    7.8805    1.7201   C.2
     18    V   -4.9458    6.6974   -3.6485   P.3
     19  O1V   -4.5054    7.7738   -4.9501   O.3
     20  O2V   -5.7350    5.6659   -5.0506   O.3
     21  O3V   -3.6478    5.5433   -3.4601   O.3
     22   H1   -9.9148    7.0528   -0.2658     H
     23  H21   -9.4415    9.1534   -1.7654     H
     24  H22   -9.3863    7.5778   -2.1025     H
     25   H3   -7.0774    8.7021   -2.3956     H
     26   H5   -7.4434    6.2226   -1.3160     H
     27   H7   -4.9749    6.6276   -0.6847     H
     28   H9   -5.0275    9.4312   -0.4613     H
     29  H13   -3.6788    7.7320    3.5678     H
     30  H16   -7.7524    7.1218    3.4417     H
     31  H17   -7.7035    7.9169    1.1536     H
@<TRIPOS>BOND
      1     1    22 1
      2     2     3 1
      3     2    23 1
      4     2    24 1
      5     3     4 1
      6     3     5 1
      7     3    23 1
      8     3    24 1
      9     3    25 1
     10     3    26 1
     11     3    31 1
     12     4     9 1
     13     4    25 1
     14     4    28 1
     15     4    31 1
     16     5     6 1
     17     5     7 1
     18     5    25 1
     19     5    26 1
     20     5    27 1
     21     6    20 1
     22     6    26 1
     23     7     8 1
     24     7    27 1
     25     8    19 1
     26     9    28 1
     27    10    11 1
     28    10    17 1
     29    10    31 1
     30    11    12 1
     31    11    13 1
     32    11    14 1
     33    11    16 1
     34    11    17 1
     35    11    28 1
     36    11    29 1
     37    12    13 1
     38    12    28 1
     39    12    29 1
     40    13    14 1
     41    13    15 1
     42    13    16 1
     43    13    29 1
     44    14    15 1
     45    14    16 1
     46    14    29 1
     47    14    30 1
     48    15    29 1
     49    16    17 1
     50    16    30 1
     51    16    31 1
     52    17    30 1
     53    17    31 1
     54    18    19 1
     55    18    20 1
     56    18    21 1
     57    19    20 1
     58    19    21 1
     59    20    21 1
     60    22    23 1
     61    22    24 1
     62    22    31 1
     63    23    24 1
     64    23    25 1
     65    24    25 1
     66    24    26 1
     67    30    31 1
