@<TRIPOS>ATOM
      1  O5'   -9.3584    7.9114   -0.2068   O.3
      2  C5'   -9.0030    8.3223   -1.5285   C.3
      3  C4'   -7.5016    8.2930   -1.5756   C.3
      4  O4'   -7.0942    9.0508   -0.3894   O.3
      5  C3'   -6.7538    6.9296   -1.6107   C.3
      6  O3'   -6.6410    6.2593   -2.9154   O.3
      7  C2'   -5.4162    7.4482   -1.1484   C.3
      8  O2'   -4.6082    7.8837   -2.2258   O.3
      9  C1'   -5.6826    8.7088   -0.2824   C.3
     10   N1   -5.6702    8.2463    1.1575 N.pl3
     11   C2   -4.4702    8.1828    1.7540   C.2
     12   O2   -3.4171    8.5357    1.2739   O.2
     13   N3   -4.5731    7.7828    3.0429 N.pl3
     14   C4   -5.6992    7.3556    3.7226   C.2
     15   O4   -5.5834    6.9239    4.8624   O.2
     16   C5   -6.9097    7.4227    2.9687   C.2
     17   C6   -6.8551    7.8846    1.7222   C.2
     18    V   -4.9481    6.7015   -3.6464   P.3
     19  O1V   -4.5077    7.7779   -4.9480   O.3
     20  O2V   -5.7373    5.6700   -5.0485   O.3
     21  O3V   -3.6501    5.5473   -3.4580   O.3
     22   H1   -9.9171    7.0568   -0.2637     H
     23  H21   -9.4438    9.1574   -1.7633     H
     24  H22   -9.3886    7.5819   -2.1004     H
     25   H3   -7.0797    8.7062   -2.3935     H
     26   H5   -7.4457    6.2267   -1.3139     H
     27   H7   -4.9772    6.6316   -0.6826     H
     28   H9   -5.0298    9.4353   -0.4592     H
     29  H13   -3.6811    7.7361    3.5699     H
     30  H16   -7.7547    7.1259    3.4438     H
     31  H17   -7.7058    7.9209    1.1557     H
@<TRIPOS>BOND
      1     1    22 1
      2     2     3 1
      3     2    23 1
      4     2    24 1
      5     3     4 1
      6     3     5 1
      7     3    23 1
      8     3    24 1
      9     3    25 1
     10     3    26 1
     11     3    31 1
     12     4     9 1
     13     4    25 1
     14     4    28 1
     15     4    31 1
     16     5     6 1
     17     5     7 1
     18     5    25 1
     19     5    26 1
     20     5    27 1
     21     6    20 1
     22     6    26 1
     23     7     8 1
     24     7    27 1
     25     8    19 1
     26     9    28 1
     27    10    11 1
     28    10    17 1
     29    10    31 1
     30    11    12 1
     31    11    13 1
     32    11    14 1
     33    11    16 1
     34    11    17 1
     35    11    28 1
     36    11    29 1
     37    12    13 1
     38    12    28 1
     39    12    29 1
     40    13    14 1
     41    13    15 1
     42    13    16 1
     43    13    29 1
     44    14    15 1
     45    14    16 1
     46    14    29 1
     47    14    30 1
     48    15    29 1
     49    16    17 1
     50    16    30 1
     51    16    31 1
     52    17    30 1
     53    17    31 1
     54    18    19 1
     55    18    20 1
     56    18    21 1
     57    19    20 1
     58    19    21 1
     59    20    21 1
     60    22    23 1
     61    22    24 1
     62    22    31 1
     63    23    24 1
     64    23    25 1
     65    24    25 1
     66    24    26 1
     67    30    31 1
