@<TRIPOS>ATOM
      1  O5'   -9.3580    7.9099   -0.2076   O.3
      2  C5'   -9.0026    8.3208   -1.5293   C.3
      3  C4'   -7.5012    8.2916   -1.5764   C.3
      4  O4'   -7.0938    9.0493   -0.3902   O.3
      5  C3'   -6.7534    6.9281   -1.6115   C.3
      6  O3'   -6.6406    6.2578   -2.9162   O.3
      7  C2'   -5.4158    7.4467   -1.1492   C.3
      8  O2'   -4.6078    7.8823   -2.2266   O.3
      9  C1'   -5.6822    8.7074   -0.2832   C.3
     10   N1   -5.6698    8.2448    1.1567 N.pl3
     11   C2   -4.4698    8.1814    1.7532   C.2
     12   O2   -3.4167    8.5342    1.2731   O.2
     13   N3   -4.5727    7.7813    3.0421 N.pl3
     14   C4   -5.6988    7.3542    3.7218   C.2
     15   O4   -5.5830    6.9224    4.8616   O.2
     16   C5   -6.9093    7.4212    2.9679   C.2
     17   C6   -6.8547    7.8831    1.7214   C.2
     18    V   -4.9477    6.7000   -3.6472   P.3
     19  O1V   -4.5073    7.7764   -4.9488   O.3
     20  O2V   -5.7369    5.6685   -5.0493   O.3
     21  O3V   -3.6497    5.5459   -3.4588   O.3
     22   H1   -9.9167    7.0554   -0.2645     H
     23  H21   -9.4434    9.1560   -1.7641     H
     24  H22   -9.3882    7.5804   -2.1012     H
     25   H3   -7.0793    8.7047   -2.3943     H
     26   H5   -7.4453    6.2252   -1.3147     H
     27   H7   -4.9768    6.6302   -0.6834     H
     28   H9   -5.0294    9.4338   -0.4600     H
     29  H13   -3.6807    7.7346    3.5691     H
     30  H16   -7.7543    7.1244    3.4430     H
     31  H17   -7.7054    7.9195    1.1549     H
@<TRIPOS>BOND
      1     1    22 1
      2     2     3 1
      3     2    23 1
      4     2    24 1
      5     3     4 1
      6     3     5 1
      7     3    23 1
      8     3    24 1
      9     3    25 1
     10     3    26 1
     11     3    31 1
     12     4     9 1
     13     4    25 1
     14     4    28 1
     15     4    31 1
     16     5     6 1
     17     5     7 1
     18     5    25 1
     19     5    26 1
     20     5    27 1
     21     6    20 1
     22     6    26 1
     23     7     8 1
     24     7    27 1
     25     8    19 1
     26     9    28 1
     27    10    11 1
     28    10    17 1
     29    10    31 1
     30    11    12 1
     31    11    13 1
     32    11    14 1
     33    11    16 1
     34    11    17 1
     35    11    28 1
     36    11    29 1
     37    12    13 1
     38    12    28 1
     39    12    29 1
     40    13    14 1
     41    13    15 1
     42    13    16 1
     43    13    29 1
     44    14    15 1
     45    14    16 1
     46    14    29 1
     47    14    30 1
     48    15    29 1
     49    16    17 1
     50    16    30 1
     51    16    31 1
     52    17    30 1
     53    17    31 1
     54    18    19 1
     55    18    20 1
     56    18    21 1
     57    19    20 1
     58    19    21 1
     59    20    21 1
     60    22    23 1
     61    22    24 1
     62    22    31 1
     63    23    24 1
     64    23    25 1
     65    24    25 1
     66    24    26 1
     67    30    31 1
