@<TRIPOS>ATOM
      1  O5'   -9.3546    7.9048   -0.2102   O.3
      2  C5'   -8.9992    8.3157   -1.5319   C.3
      3  C4'   -7.4978    8.2865   -1.5790   C.3
      4  O4'   -7.0904    9.0442   -0.3928   O.3
      5  C3'   -6.7500    6.9230   -1.6141   C.3
      6  O3'   -6.6372    6.2527   -2.9188   O.3
      7  C2'   -5.4124    7.4416   -1.1518   C.3
      8  O2'   -4.6044    7.8772   -2.2292   O.3
      9  C1'   -5.6788    8.7023   -0.2858   C.3
     10   N1   -5.6664    8.2397    1.1541 N.pl3
     11   C2   -4.4664    8.1763    1.7506   C.2
     12   O2   -3.4133    8.5291    1.2705   O.2
     13   N3   -4.5693    7.7762    3.0395 N.pl3
     14   C4   -5.6954    7.3491    3.7192   C.2
     15   O4   -5.5796    6.9173    4.8590   O.2
     16   C5   -6.9059    7.4161    2.9653   C.2
     17   C6   -6.8513    7.8780    1.7188   C.2
     18    V   -4.9443    6.6949   -3.6498   P.3
     19  O1V   -4.5039    7.7713   -4.9514   O.3
     20  O2V   -5.7335    5.6634   -5.0519   O.3
     21  O3V   -3.6463    5.5408   -3.4614   O.3
     22   H1   -9.9133    7.0503   -0.2671     H
     23  H21   -9.4400    9.1509   -1.7667     H
     24  H22   -9.3848    7.5753   -2.1038     H
     25   H3   -7.0759    8.6996   -2.3969     H
     26   H5   -7.4419    6.2201   -1.3173     H
     27   H7   -4.9734    6.6251   -0.6860     H
     28   H9   -5.0260    9.4287   -0.4626     H
     29  H13   -3.6773    7.7295    3.5665     H
     30  H16   -7.7509    7.1193    3.4404     H
     31  H17   -7.7020    7.9144    1.1523     H
@<TRIPOS>BOND
      1     1    22 1
      2     2     3 1
      3     2    23 1
      4     2    24 1
      5     3     4 1
      6     3     5 1
      7     3    23 1
      8     3    24 1
      9     3    25 1
     10     3    26 1
     11     3    31 1
     12     4     9 1
     13     4    25 1
     14     4    28 1
     15     4    31 1
     16     5     6 1
     17     5     7 1
     18     5    25 1
     19     5    26 1
     20     5    27 1
     21     6    20 1
     22     6    26 1
     23     7     8 1
     24     7    27 1
     25     8    19 1
     26     9    28 1
     27    10    11 1
     28    10    17 1
     29    10    31 1
     30    11    12 1
     31    11    13 1
     32    11    14 1
     33    11    16 1
     34    11    17 1
     35    11    28 1
     36    11    29 1
     37    12    13 1
     38    12    28 1
     39    12    29 1
     40    13    14 1
     41    13    15 1
     42    13    16 1
     43    13    29 1
     44    14    15 1
     45    14    16 1
     46    14    29 1
     47    14    30 1
     48    15    29 1
     49    16    17 1
     50    16    30 1
     51    16    31 1
     52    17    30 1
     53    17    31 1
     54    18    19 1
     55    18    20 1
     56    18    21 1
     57    19    20 1
     58    19    21 1
     59    20    21 1
     60    22    23 1
     61    22    24 1
     62    22    31 1
     63    23    24 1
     64    23    25 1
     65    24    25 1
     66    24    26 1
     67    30    31 1
