@<TRIPOS>ATOM
      1  O5'   -9.1781    6.9110    0.5599   O.3
      2  C5'   -8.8227    7.3219   -0.7618   C.3
      3  C4'   -7.3213    7.2927   -0.8089   C.3
      4  O4'   -6.9139    8.0504    0.3773   O.3
      5  C3'   -6.5735    5.9292   -0.8440   C.3
      6  O3'   -6.4607    5.2589   -2.1487   O.3
      7  C2'   -5.2359    6.4478   -0.3817   C.3
      8  O2'   -4.4279    6.8834   -1.4591   O.3
      9  C1'   -5.5023    7.7085    0.4843   C.3
     10   N1   -5.4899    7.2459    1.9242 N.pl3
     11   C2   -4.2899    7.1825    2.5207   C.2
     12   O2   -3.2368    7.5353    2.0406   O.2
     13   N3   -4.3928    6.7824    3.8096 N.pl3
     14   C4   -5.5189    6.3553    4.4893   C.2
     15   O4   -5.4031    5.9235    5.6291   O.2
     16   C5   -6.7294    6.4223    3.7354   C.2
     17   C6   -6.6748    6.8842    2.4889   C.2
     18    V   -4.7678    5.7011   -2.8797   P.3
     19  O1V   -4.3274    6.7775   -4.1813   O.3
     20  O2V   -5.5570    4.6696   -4.2818   O.3
     21  O3V   -3.4698    4.5470   -2.6913   O.3
     22   H1   -9.7368    6.0565    0.5030     H
     23  H21   -9.2635    8.1572   -0.9966     H
     24  H22   -9.2083    6.5815   -1.3337     H
     25   H3   -6.8994    7.7058   -1.6268     H
     26   H5   -7.2654    5.2263   -0.5472     H
     27   H7   -4.7969    5.6313    0.0841     H
     28   H9   -4.8495    8.4349    0.3075     H
     29  H13   -3.5008    6.7357    4.3366     H
     30  H16   -7.5744    6.1255    4.2105     H
     31  H17   -7.5255    6.9206    1.9224     H
@<TRIPOS>BOND
      1     1    22 1
      2     2     3 1
      3     2    23 1
      4     2    24 1
      5     3     4 1
      6     3     5 1
      7     3    23 1
      8     3    24 1
      9     3    25 1
     10     3    26 1
     11     3    31 1
     12     4     9 1
     13     4    25 1
     14     4    28 1
     15     4    31 1
     16     5     6 1
     17     5     7 1
     18     5    25 1
     19     5    26 1
     20     5    27 1
     21     6    20 1
     22     6    26 1
     23     7     8 1
     24     7    27 1
     25     8    19 1
     26     9    28 1
     27    10    11 1
     28    10    17 1
     29    10    31 1
     30    11    12 1
     31    11    13 1
     32    11    14 1
     33    11    16 1
     34    11    17 1
     35    11    28 1
     36    11    29 1
     37    12    13 1
     38    12    28 1
     39    12    29 1
     40    13    14 1
     41    13    15 1
     42    13    16 1
     43    13    29 1
     44    14    15 1
     45    14    16 1
     46    14    29 1
     47    14    30 1
     48    15    29 1
     49    16    17 1
     50    16    30 1
     51    16    31 1
     52    17    30 1
     53    17    31 1
     54    18    19 1
     55    18    20 1
     56    18    21 1
     57    19    20 1
     58    19    21 1
     59    20    21 1
     60    22    23 1
     61    22    24 1
     62    22    31 1
     63    23    24 1
     64    23    25 1
     65    24    25 1
     66    24    26 1
     67    30    31 1
