@<TRIPOS>ATOM
      1  O5'   -9.3562    7.9070   -0.2092   O.3
      2  C5'   -9.0008    8.3179   -1.5309   C.3
      3  C4'   -7.4994    8.2887   -1.5780   C.3
      4  O4'   -7.0920    9.0464   -0.3918   O.3
      5  C3'   -6.7516    6.9252   -1.6131   C.3
      6  O3'   -6.6388    6.2549   -2.9178   O.3
      7  C2'   -5.4140    7.4438   -1.1508   C.3
      8  O2'   -4.6060    7.8794   -2.2282   O.3
      9  C1'   -5.6804    8.7045   -0.2848   C.3
     10   N1   -5.6680    8.2419    1.1551 N.pl3
     11   C2   -4.4680    8.1785    1.7516   C.2
     12   O2   -3.4149    8.5313    1.2715   O.2
     13   N3   -4.5709    7.7784    3.0405 N.pl3
     14   C4   -5.6970    7.3513    3.7202   C.2
     15   O4   -5.5812    6.9195    4.8600   O.2
     16   C5   -6.9075    7.4183    2.9663   C.2
     17   C6   -6.8529    7.8802    1.7198   C.2
     18    V   -4.9459    6.6971   -3.6488   P.3
     19  O1V   -4.5055    7.7735   -4.9504   O.3
     20  O2V   -5.7351    5.6656   -5.0509   O.3
     21  O3V   -3.6479    5.5430   -3.4604   O.3
     22   H1   -9.9149    7.0525   -0.2661     H
     23  H21   -9.4416    9.1531   -1.7657     H
     24  H22   -9.3864    7.5775   -2.1028     H
     25   H3   -7.0775    8.7018   -2.3959     H
     26   H5   -7.4435    6.2223   -1.3163     H
     27   H7   -4.9750    6.6273   -0.6850     H
     28   H9   -5.0276    9.4309   -0.4616     H
     29  H13   -3.6789    7.7317    3.5675     H
     30  H16   -7.7525    7.1215    3.4414     H
     31  H17   -7.7036    7.9166    1.1533     H
@<TRIPOS>BOND
      1     1    22 1
      2     2     3 1
      3     2    23 1
      4     2    24 1
      5     3     4 1
      6     3     5 1
      7     3    23 1
      8     3    24 1
      9     3    25 1
     10     3    26 1
     11     3    31 1
     12     4     9 1
     13     4    25 1
     14     4    28 1
     15     4    31 1
     16     5     6 1
     17     5     7 1
     18     5    25 1
     19     5    26 1
     20     5    27 1
     21     6    20 1
     22     6    26 1
     23     7     8 1
     24     7    27 1
     25     8    19 1
     26     9    28 1
     27    10    11 1
     28    10    17 1
     29    10    31 1
     30    11    12 1
     31    11    13 1
     32    11    14 1
     33    11    16 1
     34    11    17 1
     35    11    28 1
     36    11    29 1
     37    12    13 1
     38    12    28 1
     39    12    29 1
     40    13    14 1
     41    13    15 1
     42    13    16 1
     43    13    29 1
     44    14    15 1
     45    14    16 1
     46    14    29 1
     47    14    30 1
     48    15    29 1
     49    16    17 1
     50    16    30 1
     51    16    31 1
     52    17    30 1
     53    17    31 1
     54    18    19 1
     55    18    20 1
     56    18    21 1
     57    19    20 1
     58    19    21 1
     59    20    21 1
     60    22    23 1
     61    22    24 1
     62    22    31 1
     63    23    24 1
     64    23    25 1
     65    24    25 1
     66    24    26 1
     67    30    31 1
