@<TRIPOS>ATOM
      1  O5'   -9.3081    8.0316   -0.1399   O.3
      2  C5'   -8.9527    8.4425   -1.4616   C.3
      3  C4'   -7.4513    8.4133   -1.5087   C.3
      4  O4'   -7.0439    9.1710   -0.3225   O.3
      5  C3'   -6.7035    7.0498   -1.5438   C.3
      6  O3'   -6.5907    6.3795   -2.8485   O.3
      7  C2'   -5.3659    7.5684   -1.0815   C.3
      8  O2'   -4.5579    8.0040   -2.1589   O.3
      9  C1'   -5.6323    8.8291   -0.2155   C.3
     10   N1   -5.6199    8.3665    1.2244 N.pl3
     11   C2   -4.4199    8.3031    1.8209   C.2
     12   O2   -3.3668    8.6559    1.3408   O.2
     13   N3   -4.5228    7.9030    3.1098 N.pl3
     14   C4   -5.6489    7.4759    3.7895   C.2
     15   O4   -5.5331    7.0441    4.9293   O.2
     16   C5   -6.8594    7.5429    3.0356   C.2
     17   C6   -6.8048    8.0048    1.7891   C.2
     18    V   -4.8978    6.8217   -3.5795   P.3
     19  O1V   -4.4574    7.8981   -4.8811   O.3
     20  O2V   -5.6870    5.7902   -4.9816   O.3
     21  O3V   -3.5998    5.6676   -3.3911   O.3
     22   H1   -9.8668    7.1771   -0.1968     H
     23  H21   -9.3935    9.2777   -1.6964     H
     24  H22   -9.3383    7.7021   -2.0335     H
     25   H3   -7.0294    8.8264   -2.3266     H
     26   H5   -7.3954    6.3469   -1.2470     H
     27   H7   -4.9269    6.7519   -0.6157     H
     28   H9   -4.9795    9.5555   -0.3923     H
     29  H13   -3.6308    7.8563    3.6368     H
     30  H16   -7.7044    7.2461    3.5107     H
     31  H17   -7.6555    8.0412    1.2226     H
@<TRIPOS>BOND
      1     1    22 1
      2     2     3 1
      3     2    23 1
      4     2    24 1
      5     3     4 1
      6     3     5 1
      7     3    23 1
      8     3    24 1
      9     3    25 1
     10     3    26 1
     11     3    31 1
     12     4     9 1
     13     4    25 1
     14     4    28 1
     15     4    31 1
     16     5     6 1
     17     5     7 1
     18     5    25 1
     19     5    26 1
     20     5    27 1
     21     6    20 1
     22     6    26 1
     23     7     8 1
     24     7    27 1
     25     8    19 1
     26     9    28 1
     27    10    11 1
     28    10    17 1
     29    10    31 1
     30    11    12 1
     31    11    13 1
     32    11    14 1
     33    11    16 1
     34    11    17 1
     35    11    28 1
     36    11    29 1
     37    12    13 1
     38    12    28 1
     39    12    29 1
     40    13    14 1
     41    13    15 1
     42    13    16 1
     43    13    29 1
     44    14    15 1
     45    14    16 1
     46    14    29 1
     47    14    30 1
     48    15    29 1
     49    16    17 1
     50    16    30 1
     51    16    31 1
     52    17    30 1
     53    17    31 1
     54    18    19 1
     55    18    20 1
     56    18    21 1
     57    19    20 1
     58    19    21 1
     59    20    21 1
     60    22    23 1
     61    22    24 1
     62    22    31 1
     63    23    24 1
     64    23    25 1
     65    24    25 1
     66    24    26 1
     67    30    31 1
