@<TRIPOS>ATOM
      1  O5'   -9.3596    7.9125   -0.2063   O.3
      2  C5'   -9.0042    8.3234   -1.5280   C.3
      3  C4'   -7.5028    8.2942   -1.5751   C.3
      4  O4'   -7.0954    9.0519   -0.3889   O.3
      5  C3'   -6.7550    6.9307   -1.6102   C.3
      6  O3'   -6.6422    6.2604   -2.9149   O.3
      7  C2'   -5.4174    7.4493   -1.1479   C.3
      8  O2'   -4.6094    7.8849   -2.2253   O.3
      9  C1'   -5.6838    8.7100   -0.2819   C.3
     10   N1   -5.6714    8.2474    1.1580 N.pl3
     11   C2   -4.4714    8.1840    1.7545   C.2
     12   O2   -3.4183    8.5368    1.2744   O.2
     13   N3   -4.5743    7.7839    3.0434 N.pl3
     14   C4   -5.7004    7.3568    3.7231   C.2
     15   O4   -5.5846    6.9250    4.8629   O.2
     16   C5   -6.9109    7.4238    2.9692   C.2
     17   C6   -6.8563    7.8857    1.7227   C.2
     18    V   -4.9493    6.7026   -3.6459   P.3
     19  O1V   -4.5089    7.7790   -4.9475   O.3
     20  O2V   -5.7385    5.6711   -5.0480   O.3
     21  O3V   -3.6513    5.5485   -3.4575   O.3
     22   H1   -9.9183    7.0580   -0.2632     H
     23  H21   -9.4450    9.1586   -1.7628     H
     24  H22   -9.3898    7.5830   -2.0999     H
     25   H3   -7.0809    8.7073   -2.3930     H
     26   H5   -7.4469    6.2278   -1.3134     H
     27   H7   -4.9784    6.6328   -0.6821     H
     28   H9   -5.0310    9.4364   -0.4587     H
     29  H13   -3.6823    7.7372    3.5704     H
     30  H16   -7.7559    7.1270    3.4443     H
     31  H17   -7.7070    7.9221    1.1562     H
@<TRIPOS>BOND
      1     1    22 1
      2     2     3 1
      3     2    23 1
      4     2    24 1
      5     3     4 1
      6     3     5 1
      7     3    23 1
      8     3    24 1
      9     3    25 1
     10     3    26 1
     11     3    31 1
     12     4     9 1
     13     4    25 1
     14     4    28 1
     15     4    31 1
     16     5     6 1
     17     5     7 1
     18     5    25 1
     19     5    26 1
     20     5    27 1
     21     6    20 1
     22     6    26 1
     23     7     8 1
     24     7    27 1
     25     8    19 1
     26     9    28 1
     27    10    11 1
     28    10    17 1
     29    10    31 1
     30    11    12 1
     31    11    13 1
     32    11    14 1
     33    11    16 1
     34    11    17 1
     35    11    28 1
     36    11    29 1
     37    12    13 1
     38    12    28 1
     39    12    29 1
     40    13    14 1
     41    13    15 1
     42    13    16 1
     43    13    29 1
     44    14    15 1
     45    14    16 1
     46    14    29 1
     47    14    30 1
     48    15    29 1
     49    16    17 1
     50    16    30 1
     51    16    31 1
     52    17    30 1
     53    17    31 1
     54    18    19 1
     55    18    20 1
     56    18    21 1
     57    19    20 1
     58    19    21 1
     59    20    21 1
     60    22    23 1
     61    22    24 1
     62    22    31 1
     63    23    24 1
     64    23    25 1
     65    24    25 1
     66    24    26 1
     67    30    31 1
