@<TRIPOS>ATOM
      1  O5'   -8.6710    7.9171    0.7624   O.3
      2  C5'   -8.3156    8.3280   -0.5593   C.3
      3  C4'   -6.8142    8.2988   -0.6064   C.3
      4  O4'   -6.4068    9.0565    0.5798   O.3
      5  C3'   -6.0664    6.9353   -0.6415   C.3
      6  O3'   -5.9536    6.2650   -1.9462   O.3
      7  C2'   -4.7288    7.4539   -0.1792   C.3
      8  O2'   -3.9208    7.8895   -1.2566   O.3
      9  C1'   -4.9952    8.7146    0.6868   C.3
     10   N1   -4.9828    8.2520    2.1267 N.pl3
     11   C2   -3.7828    8.1886    2.7232   C.2
     12   O2   -2.7297    8.5414    2.2431   O.2
     13   N3   -3.8857    7.7885    4.0121 N.pl3
     14   C4   -5.0118    7.3614    4.6918   C.2
     15   O4   -4.8960    6.9296    5.8316   O.2
     16   C5   -6.2223    7.4284    3.9379   C.2
     17   C6   -6.1677    7.8903    2.6914   C.2
     18    V   -4.2607    6.7072   -2.6772   P.3
     19  O1V   -3.8203    7.7836   -3.9788   O.3
     20  O2V   -5.0499    5.6757   -4.0793   O.3
     21  O3V   -2.9627    5.5531   -2.4888   O.3
     22   H1   -9.2297    7.0626    0.7055     H
     23  H21   -8.7564    9.1632   -0.7941     H
     24  H22   -8.7012    7.5876   -1.1312     H
     25   H3   -6.3923    8.7119   -1.4243     H
     26   H5   -6.7583    6.2324   -0.3447     H
     27   H7   -4.2898    6.6374    0.2866     H
     28   H9   -4.3424    9.4410    0.5100     H
     29  H13   -2.9937    7.7418    4.5391     H
     30  H16   -7.0673    7.1316    4.4130     H
     31  H17   -7.0184    7.9267    2.1249     H
@<TRIPOS>BOND
      1     1    22 1
      2     2     3 1
      3     2    23 1
      4     2    24 1
      5     3     4 1
      6     3     5 1
      7     3    23 1
      8     3    24 1
      9     3    25 1
     10     3    26 1
     11     3    31 1
     12     4     9 1
     13     4    25 1
     14     4    28 1
     15     4    31 1
     16     5     6 1
     17     5     7 1
     18     5    25 1
     19     5    26 1
     20     5    27 1
     21     6    20 1
     22     6    26 1
     23     7     8 1
     24     7    27 1
     25     8    19 1
     26     9    28 1
     27    10    11 1
     28    10    17 1
     29    10    31 1
     30    11    12 1
     31    11    13 1
     32    11    14 1
     33    11    16 1
     34    11    17 1
     35    11    28 1
     36    11    29 1
     37    12    13 1
     38    12    28 1
     39    12    29 1
     40    13    14 1
     41    13    15 1
     42    13    16 1
     43    13    29 1
     44    14    15 1
     45    14    16 1
     46    14    29 1
     47    14    30 1
     48    15    29 1
     49    16    17 1
     50    16    30 1
     51    16    31 1
     52    17    30 1
     53    17    31 1
     54    18    19 1
     55    18    20 1
     56    18    21 1
     57    19    20 1
     58    19    21 1
     59    20    21 1
     60    22    23 1
     61    22    24 1
     62    22    31 1
     63    23    24 1
     64    23    25 1
     65    24    25 1
     66    24    26 1
     67    30    31 1
