@<TRIPOS>ATOM
      1  O5'   -9.3570    7.9085   -0.2083   O.3
      2  C5'   -9.0016    8.3194   -1.5300   C.3
      3  C4'   -7.5002    8.2902   -1.5771   C.3
      4  O4'   -7.0928    9.0479   -0.3909   O.3
      5  C3'   -6.7524    6.9267   -1.6122   C.3
      6  O3'   -6.6396    6.2564   -2.9169   O.3
      7  C2'   -5.4148    7.4453   -1.1499   C.3
      8  O2'   -4.6068    7.8809   -2.2273   O.3
      9  C1'   -5.6812    8.7060   -0.2839   C.3
     10   N1   -5.6688    8.2434    1.1560 N.pl3
     11   C2   -4.4688    8.1800    1.7525   C.2
     12   O2   -3.4157    8.5328    1.2724   O.2
     13   N3   -4.5717    7.7799    3.0414 N.pl3
     14   C4   -5.6978    7.3528    3.7211   C.2
     15   O4   -5.5820    6.9210    4.8609   O.2
     16   C5   -6.9083    7.4198    2.9672   C.2
     17   C6   -6.8537    7.8817    1.7207   C.2
     18    V   -4.9467    6.6986   -3.6479   P.3
     19  O1V   -4.5063    7.7750   -4.9495   O.3
     20  O2V   -5.7359    5.6671   -5.0500   O.3
     21  O3V   -3.6487    5.5445   -3.4595   O.3
     22   H1   -9.9157    7.0540   -0.2652     H
     23  H21   -9.4424    9.1546   -1.7648     H
     24  H22   -9.3872    7.5790   -2.1019     H
     25   H3   -7.0783    8.7033   -2.3950     H
     26   H5   -7.4443    6.2238   -1.3154     H
     27   H7   -4.9758    6.6288   -0.6841     H
     28   H9   -5.0284    9.4324   -0.4607     H
     29  H13   -3.6797    7.7332    3.5684     H
     30  H16   -7.7533    7.1230    3.4423     H
     31  H17   -7.7044    7.9181    1.1542     H
@<TRIPOS>BOND
      1     1    22 1
      2     2     3 1
      3     2    23 1
      4     2    24 1
      5     3     4 1
      6     3     5 1
      7     3    23 1
      8     3    24 1
      9     3    25 1
     10     3    26 1
     11     3    31 1
     12     4     9 1
     13     4    25 1
     14     4    28 1
     15     4    31 1
     16     5     6 1
     17     5     7 1
     18     5    25 1
     19     5    26 1
     20     5    27 1
     21     6    20 1
     22     6    26 1
     23     7     8 1
     24     7    27 1
     25     8    19 1
     26     9    28 1
     27    10    11 1
     28    10    17 1
     29    10    31 1
     30    11    12 1
     31    11    13 1
     32    11    14 1
     33    11    16 1
     34    11    17 1
     35    11    28 1
     36    11    29 1
     37    12    13 1
     38    12    28 1
     39    12    29 1
     40    13    14 1
     41    13    15 1
     42    13    16 1
     43    13    29 1
     44    14    15 1
     45    14    16 1
     46    14    29 1
     47    14    30 1
     48    15    29 1
     49    16    17 1
     50    16    30 1
     51    16    31 1
     52    17    30 1
     53    17    31 1
     54    18    19 1
     55    18    20 1
     56    18    21 1
     57    19    20 1
     58    19    21 1
     59    20    21 1
     60    22    23 1
     61    22    24 1
     62    22    31 1
     63    23    24 1
     64    23    25 1
     65    24    25 1
     66    24    26 1
     67    30    31 1
