@<TRIPOS>ATOM
      1  O5'   -9.3574    7.9089   -0.2082   O.3
      2  C5'   -9.0020    8.3198   -1.5299   C.3
      3  C4'   -7.5006    8.2906   -1.5770   C.3
      4  O4'   -7.0932    9.0483   -0.3908   O.3
      5  C3'   -6.7528    6.9271   -1.6121   C.3
      6  O3'   -6.6400    6.2568   -2.9168   O.3
      7  C2'   -5.4152    7.4457   -1.1498   C.3
      8  O2'   -4.6072    7.8813   -2.2272   O.3
      9  C1'   -5.6816    8.7064   -0.2838   C.3
     10   N1   -5.6692    8.2438    1.1561 N.pl3
     11   C2   -4.4692    8.1804    1.7526   C.2
     12   O2   -3.4161    8.5332    1.2725   O.2
     13   N3   -4.5721    7.7803    3.0415 N.pl3
     14   C4   -5.6982    7.3532    3.7212   C.2
     15   O4   -5.5824    6.9214    4.8610   O.2
     16   C5   -6.9087    7.4202    2.9673   C.2
     17   C6   -6.8541    7.8821    1.7208   C.2
     18    V   -4.9471    6.6990   -3.6478   P.3
     19  O1V   -4.5067    7.7754   -4.9494   O.3
     20  O2V   -5.7363    5.6675   -5.0499   O.3
     21  O3V   -3.6491    5.5449   -3.4594   O.3
     22   H1   -9.9161    7.0544   -0.2651     H
     23  H21   -9.4428    9.1550   -1.7647     H
     24  H22   -9.3876    7.5794   -2.1018     H
     25   H3   -7.0787    8.7037   -2.3949     H
     26   H5   -7.4447    6.2242   -1.3153     H
     27   H7   -4.9762    6.6292   -0.6840     H
     28   H9   -5.0288    9.4328   -0.4606     H
     29  H13   -3.6801    7.7336    3.5685     H
     30  H16   -7.7537    7.1234    3.4424     H
     31  H17   -7.7048    7.9185    1.1543     H
@<TRIPOS>BOND
      1     1    22 1
      2     2     3 1
      3     2    23 1
      4     2    24 1
      5     3     4 1
      6     3     5 1
      7     3    23 1
      8     3    24 1
      9     3    25 1
     10     3    26 1
     11     3    31 1
     12     4     9 1
     13     4    25 1
     14     4    28 1
     15     4    31 1
     16     5     6 1
     17     5     7 1
     18     5    25 1
     19     5    26 1
     20     5    27 1
     21     6    20 1
     22     6    26 1
     23     7     8 1
     24     7    27 1
     25     8    19 1
     26     9    28 1
     27    10    11 1
     28    10    17 1
     29    10    31 1
     30    11    12 1
     31    11    13 1
     32    11    14 1
     33    11    16 1
     34    11    17 1
     35    11    28 1
     36    11    29 1
     37    12    13 1
     38    12    28 1
     39    12    29 1
     40    13    14 1
     41    13    15 1
     42    13    16 1
     43    13    29 1
     44    14    15 1
     45    14    16 1
     46    14    29 1
     47    14    30 1
     48    15    29 1
     49    16    17 1
     50    16    30 1
     51    16    31 1
     52    17    30 1
     53    17    31 1
     54    18    19 1
     55    18    20 1
     56    18    21 1
     57    19    20 1
     58    19    21 1
     59    20    21 1
     60    22    23 1
     61    22    24 1
     62    22    31 1
     63    23    24 1
     64    23    25 1
     65    24    25 1
     66    24    26 1
     67    30    31 1
