@<TRIPOS>ATOM
      1  O5'   -9.3570    7.9082   -0.2085   O.3
      2  C5'   -9.0016    8.3191   -1.5302   C.3
      3  C4'   -7.5002    8.2899   -1.5773   C.3
      4  O4'   -7.0928    9.0476   -0.3911   O.3
      5  C3'   -6.7524    6.9264   -1.6124   C.3
      6  O3'   -6.6396    6.2561   -2.9171   O.3
      7  C2'   -5.4148    7.4450   -1.1501   C.3
      8  O2'   -4.6068    7.8806   -2.2275   O.3
      9  C1'   -5.6812    8.7057   -0.2841   C.3
     10   N1   -5.6688    8.2431    1.1558 N.pl3
     11   C2   -4.4688    8.1797    1.7523   C.2
     12   O2   -3.4157    8.5325    1.2722   O.2
     13   N3   -4.5717    7.7796    3.0412 N.pl3
     14   C4   -5.6978    7.3525    3.7209   C.2
     15   O4   -5.5820    6.9207    4.8607   O.2
     16   C5   -6.9083    7.4195    2.9670   C.2
     17   C6   -6.8537    7.8814    1.7205   C.2
     18    V   -4.9467    6.6983   -3.6481   P.3
     19  O1V   -4.5063    7.7747   -4.9497   O.3
     20  O2V   -5.7359    5.6668   -5.0502   O.3
     21  O3V   -3.6487    5.5442   -3.4597   O.3
     22   H1   -9.9157    7.0537   -0.2654     H
     23  H21   -9.4424    9.1543   -1.7650     H
     24  H22   -9.3872    7.5787   -2.1021     H
     25   H3   -7.0783    8.7030   -2.3952     H
     26   H5   -7.4443    6.2235   -1.3156     H
     27   H7   -4.9758    6.6285   -0.6843     H
     28   H9   -5.0284    9.4321   -0.4609     H
     29  H13   -3.6797    7.7329    3.5682     H
     30  H16   -7.7533    7.1227    3.4421     H
     31  H17   -7.7044    7.9178    1.1540     H
@<TRIPOS>BOND
      1     1    22 1
      2     2     3 1
      3     2    23 1
      4     2    24 1
      5     3     4 1
      6     3     5 1
      7     3    23 1
      8     3    24 1
      9     3    25 1
     10     3    26 1
     11     3    31 1
     12     4     9 1
     13     4    25 1
     14     4    28 1
     15     4    31 1
     16     5     6 1
     17     5     7 1
     18     5    25 1
     19     5    26 1
     20     5    27 1
     21     6    20 1
     22     6    26 1
     23     7     8 1
     24     7    27 1
     25     8    19 1
     26     9    28 1
     27    10    11 1
     28    10    17 1
     29    10    31 1
     30    11    12 1
     31    11    13 1
     32    11    14 1
     33    11    16 1
     34    11    17 1
     35    11    28 1
     36    11    29 1
     37    12    13 1
     38    12    28 1
     39    12    29 1
     40    13    14 1
     41    13    15 1
     42    13    16 1
     43    13    29 1
     44    14    15 1
     45    14    16 1
     46    14    29 1
     47    14    30 1
     48    15    29 1
     49    16    17 1
     50    16    30 1
     51    16    31 1
     52    17    30 1
     53    17    31 1
     54    18    19 1
     55    18    20 1
     56    18    21 1
     57    19    20 1
     58    19    21 1
     59    20    21 1
     60    22    23 1
     61    22    24 1
     62    22    31 1
     63    23    24 1
     64    23    25 1
     65    24    25 1
     66    24    26 1
     67    30    31 1
