@<TRIPOS>ATOM
      1  O5'  -15.9579    0.8677    0.4958   O.3
      2  C5'  -15.6025    1.2786   -0.8259   C.3
      3  C4'  -14.1011    1.2494   -0.8730   C.3
      4  O4'  -13.6937    2.0071    0.3132   O.3
      5  C3'  -13.3533   -0.1141   -0.9081   C.3
      6  O3'  -13.2405   -0.7844   -2.2128   O.3
      7  C2'  -12.0157    0.4045   -0.4458   C.3
      8  O2'  -11.2077    0.8401   -1.5232   O.3
      9  C1'  -12.2821    1.6652    0.4202   C.3
     10   N1  -12.2697    1.2026    1.8601 N.pl3
     11   C2  -11.0697    1.1392    2.4566   C.2
     12   O2  -10.0166    1.4920    1.9765   O.2
     13   N3  -11.1726    0.7391    3.7455 N.pl3
     14   C4  -12.2987    0.3120    4.4252   C.2
     15   O4  -12.1829   -0.1198    5.5650   O.2
     16   C5  -13.5092    0.3790    3.6713   C.2
     17   C6  -13.4546    0.8409    2.4248   C.2
     18    V  -11.5476   -0.3422   -2.9438   P.3
     19  O1V  -11.1072    0.7342   -4.2454   O.3
     20  O2V  -12.3368   -1.3737   -4.3459   O.3
     21  O3V  -10.2496   -1.4963   -2.7554   O.3
     22   H1  -16.5166    0.0132    0.4389     H
     23  H21  -16.0433    2.1138   -1.0607     H
     24  H22  -15.9881    0.5382   -1.3978     H
     25   H3  -13.6792    1.6625   -1.6909     H
     26   H5  -14.0452   -0.8170   -0.6113     H
     27   H7  -11.5767   -0.4120    0.0200     H
     28   H9  -11.6293    2.3916    0.2434     H
     29  H13  -10.2806    0.6924    4.2725     H
     30  H16  -14.3542    0.0822    4.1464     H
     31  H17  -14.3053    0.8773    1.8583     H
@<TRIPOS>BOND
      1     1    22 1
      2     2     3 1
      3     2    23 1
      4     2    24 1
      5     3     4 1
      6     3     5 1
      7     3    23 1
      8     3    24 1
      9     3    25 1
     10     3    26 1
     11     3    31 1
     12     4     9 1
     13     4    25 1
     14     4    28 1
     15     4    31 1
     16     5     6 1
     17     5     7 1
     18     5    25 1
     19     5    26 1
     20     5    27 1
     21     6    20 1
     22     6    26 1
     23     7     8 1
     24     7    27 1
     25     8    19 1
     26     9    28 1
     27    10    11 1
     28    10    17 1
     29    10    31 1
     30    11    12 1
     31    11    13 1
     32    11    14 1
     33    11    16 1
     34    11    17 1
     35    11    28 1
     36    11    29 1
     37    12    13 1
     38    12    28 1
     39    12    29 1
     40    13    14 1
     41    13    15 1
     42    13    16 1
     43    13    29 1
     44    14    15 1
     45    14    16 1
     46    14    29 1
     47    14    30 1
     48    15    29 1
     49    16    17 1
     50    16    30 1
     51    16    31 1
     52    17    30 1
     53    17    31 1
     54    18    19 1
     55    18    20 1
     56    18    21 1
     57    19    20 1
     58    19    21 1
     59    20    21 1
     60    22    23 1
     61    22    24 1
     62    22    31 1
     63    23    24 1
     64    23    25 1
     65    24    25 1
     66    24    26 1
     67    30    31 1
