@<TRIPOS>ATOM
      1  O5'   -9.3578    7.9096   -0.2078   O.3
      2  C5'   -9.0024    8.3205   -1.5295   C.3
      3  C4'   -7.5010    8.2913   -1.5766   C.3
      4  O4'   -7.0936    9.0490   -0.3904   O.3
      5  C3'   -6.7532    6.9278   -1.6117   C.3
      6  O3'   -6.6404    6.2575   -2.9164   O.3
      7  C2'   -5.4156    7.4464   -1.1494   C.3
      8  O2'   -4.6076    7.8820   -2.2268   O.3
      9  C1'   -5.6820    8.7071   -0.2834   C.3
     10   N1   -5.6696    8.2445    1.1565 N.pl3
     11   C2   -4.4696    8.1811    1.7530   C.2
     12   O2   -3.4165    8.5339    1.2729   O.2
     13   N3   -4.5725    7.7810    3.0419 N.pl3
     14   C4   -5.6986    7.3539    3.7216   C.2
     15   O4   -5.5828    6.9221    4.8614   O.2
     16   C5   -6.9091    7.4209    2.9677   C.2
     17   C6   -6.8545    7.8828    1.7212   C.2
     18    V   -4.9475    6.6997   -3.6474   P.3
     19  O1V   -4.5071    7.7761   -4.9490   O.3
     20  O2V   -5.7367    5.6682   -5.0495   O.3
     21  O3V   -3.6495    5.5456   -3.4590   O.3
     22   H1   -9.9165    7.0551   -0.2647     H
     23  H21   -9.4432    9.1557   -1.7643     H
     24  H22   -9.3880    7.5801   -2.1014     H
     25   H3   -7.0791    8.7044   -2.3945     H
     26   H5   -7.4451    6.2249   -1.3149     H
     27   H7   -4.9766    6.6299   -0.6836     H
     28   H9   -5.0292    9.4335   -0.4602     H
     29  H13   -3.6805    7.7343    3.5689     H
     30  H16   -7.7541    7.1241    3.4428     H
     31  H17   -7.7052    7.9192    1.1547     H
@<TRIPOS>BOND
      1     1    22 1
      2     2     3 1
      3     2    23 1
      4     2    24 1
      5     3     4 1
      6     3     5 1
      7     3    23 1
      8     3    24 1
      9     3    25 1
     10     3    26 1
     11     3    31 1
     12     4     9 1
     13     4    25 1
     14     4    28 1
     15     4    31 1
     16     5     6 1
     17     5     7 1
     18     5    25 1
     19     5    26 1
     20     5    27 1
     21     6    20 1
     22     6    26 1
     23     7     8 1
     24     7    27 1
     25     8    19 1
     26     9    28 1
     27    10    11 1
     28    10    17 1
     29    10    31 1
     30    11    12 1
     31    11    13 1
     32    11    14 1
     33    11    16 1
     34    11    17 1
     35    11    28 1
     36    11    29 1
     37    12    13 1
     38    12    28 1
     39    12    29 1
     40    13    14 1
     41    13    15 1
     42    13    16 1
     43    13    29 1
     44    14    15 1
     45    14    16 1
     46    14    29 1
     47    14    30 1
     48    15    29 1
     49    16    17 1
     50    16    30 1
     51    16    31 1
     52    17    30 1
     53    17    31 1
     54    18    19 1
     55    18    20 1
     56    18    21 1
     57    19    20 1
     58    19    21 1
     59    20    21 1
     60    22    23 1
     61    22    24 1
     62    22    31 1
     63    23    24 1
     64    23    25 1
     65    24    25 1
     66    24    26 1
     67    30    31 1
