@<TRIPOS>ATOM
      1  O5'   -9.3538    7.9033   -0.2110   O.3
      2  C5'   -8.9984    8.3142   -1.5327   C.3
      3  C4'   -7.4970    8.2850   -1.5798   C.3
      4  O4'   -7.0896    9.0427   -0.3936   O.3
      5  C3'   -6.7492    6.9215   -1.6149   C.3
      6  O3'   -6.6364    6.2512   -2.9196   O.3
      7  C2'   -5.4116    7.4401   -1.1526   C.3
      8  O2'   -4.6036    7.8757   -2.2300   O.3
      9  C1'   -5.6780    8.7008   -0.2866   C.3
     10   N1   -5.6656    8.2382    1.1533 N.pl3
     11   C2   -4.4656    8.1748    1.7498   C.2
     12   O2   -3.4125    8.5276    1.2697   O.2
     13   N3   -4.5685    7.7747    3.0387 N.pl3
     14   C4   -5.6946    7.3476    3.7184   C.2
     15   O4   -5.5788    6.9158    4.8582   O.2
     16   C5   -6.9051    7.4146    2.9645   C.2
     17   C6   -6.8505    7.8765    1.7180   C.2
     18    V   -4.9435    6.6934   -3.6506   P.3
     19  O1V   -4.5031    7.7698   -4.9522   O.3
     20  O2V   -5.7327    5.6619   -5.0527   O.3
     21  O3V   -3.6455    5.5393   -3.4622   O.3
     22   H1   -9.9125    7.0488   -0.2679     H
     23  H21   -9.4392    9.1494   -1.7675     H
     24  H22   -9.3840    7.5738   -2.1046     H
     25   H3   -7.0751    8.6981   -2.3977     H
     26   H5   -7.4411    6.2186   -1.3181     H
     27   H7   -4.9726    6.6236   -0.6868     H
     28   H9   -5.0252    9.4272   -0.4634     H
     29  H13   -3.6765    7.7280    3.5657     H
     30  H16   -7.7501    7.1178    3.4396     H
     31  H17   -7.7012    7.9129    1.1515     H
@<TRIPOS>BOND
      1     1    22 1
      2     2     3 1
      3     2    23 1
      4     2    24 1
      5     3     4 1
      6     3     5 1
      7     3    23 1
      8     3    24 1
      9     3    25 1
     10     3    26 1
     11     3    31 1
     12     4     9 1
     13     4    25 1
     14     4    28 1
     15     4    31 1
     16     5     6 1
     17     5     7 1
     18     5    25 1
     19     5    26 1
     20     5    27 1
     21     6    20 1
     22     6    26 1
     23     7     8 1
     24     7    27 1
     25     8    19 1
     26     9    28 1
     27    10    11 1
     28    10    17 1
     29    10    31 1
     30    11    12 1
     31    11    13 1
     32    11    14 1
     33    11    16 1
     34    11    17 1
     35    11    28 1
     36    11    29 1
     37    12    13 1
     38    12    28 1
     39    12    29 1
     40    13    14 1
     41    13    15 1
     42    13    16 1
     43    13    29 1
     44    14    15 1
     45    14    16 1
     46    14    29 1
     47    14    30 1
     48    15    29 1
     49    16    17 1
     50    16    30 1
     51    16    31 1
     52    17    30 1
     53    17    31 1
     54    18    19 1
     55    18    20 1
     56    18    21 1
     57    19    20 1
     58    19    21 1
     59    20    21 1
     60    22    23 1
     61    22    24 1
     62    22    31 1
     63    23    24 1
     64    23    25 1
     65    24    25 1
     66    24    26 1
     67    30    31 1
