@<TRIPOS>ATOM
      1  O5'   -9.3582    7.9103   -0.2074   O.3
      2  C5'   -9.0028    8.3212   -1.5291   C.3
      3  C4'   -7.5014    8.2920   -1.5762   C.3
      4  O4'   -7.0940    9.0497   -0.3900   O.3
      5  C3'   -6.7536    6.9285   -1.6113   C.3
      6  O3'   -6.6408    6.2582   -2.9160   O.3
      7  C2'   -5.4160    7.4471   -1.1490   C.3
      8  O2'   -4.6080    7.8827   -2.2264   O.3
      9  C1'   -5.6824    8.7078   -0.2830   C.3
     10   N1   -5.6700    8.2452    1.1569 N.pl3
     11   C2   -4.4700    8.1818    1.7534   C.2
     12   O2   -3.4169    8.5346    1.2733   O.2
     13   N3   -4.5729    7.7817    3.0423 N.pl3
     14   C4   -5.6990    7.3546    3.7220   C.2
     15   O4   -5.5832    6.9228    4.8618   O.2
     16   C5   -6.9095    7.4216    2.9681   C.2
     17   C6   -6.8549    7.8835    1.7216   C.2
     18    V   -4.9479    6.7004   -3.6470   P.3
     19  O1V   -4.5075    7.7768   -4.9486   O.3
     20  O2V   -5.7371    5.6689   -5.0491   O.3
     21  O3V   -3.6499    5.5463   -3.4586   O.3
     22   H1   -9.9169    7.0558   -0.2643     H
     23  H21   -9.4436    9.1564   -1.7639     H
     24  H22   -9.3884    7.5808   -2.1010     H
     25   H3   -7.0795    8.7051   -2.3941     H
     26   H5   -7.4455    6.2256   -1.3145     H
     27   H7   -4.9770    6.6306   -0.6832     H
     28   H9   -5.0296    9.4342   -0.4598     H
     29  H13   -3.6809    7.7350    3.5693     H
     30  H16   -7.7545    7.1248    3.4432     H
     31  H17   -7.7056    7.9199    1.1551     H
@<TRIPOS>BOND
      1     1    22 1
      2     2     3 1
      3     2    23 1
      4     2    24 1
      5     3     4 1
      6     3     5 1
      7     3    23 1
      8     3    24 1
      9     3    25 1
     10     3    26 1
     11     3    31 1
     12     4     9 1
     13     4    25 1
     14     4    28 1
     15     4    31 1
     16     5     6 1
     17     5     7 1
     18     5    25 1
     19     5    26 1
     20     5    27 1
     21     6    20 1
     22     6    26 1
     23     7     8 1
     24     7    27 1
     25     8    19 1
     26     9    28 1
     27    10    11 1
     28    10    17 1
     29    10    31 1
     30    11    12 1
     31    11    13 1
     32    11    14 1
     33    11    16 1
     34    11    17 1
     35    11    28 1
     36    11    29 1
     37    12    13 1
     38    12    28 1
     39    12    29 1
     40    13    14 1
     41    13    15 1
     42    13    16 1
     43    13    29 1
     44    14    15 1
     45    14    16 1
     46    14    29 1
     47    14    30 1
     48    15    29 1
     49    16    17 1
     50    16    30 1
     51    16    31 1
     52    17    30 1
     53    17    31 1
     54    18    19 1
     55    18    20 1
     56    18    21 1
     57    19    20 1
     58    19    21 1
     59    20    21 1
     60    22    23 1
     61    22    24 1
     62    22    31 1
     63    23    24 1
     64    23    25 1
     65    24    25 1
     66    24    26 1
     67    30    31 1
