@<TRIPOS>ATOM
      1  O5'   -9.3575    7.9097   -0.2077   O.3
      2  C5'   -9.0021    8.3206   -1.5294   C.3
      3  C4'   -7.5007    8.2914   -1.5765   C.3
      4  O4'   -7.0933    9.0491   -0.3903   O.3
      5  C3'   -6.7529    6.9279   -1.6116   C.3
      6  O3'   -6.6401    6.2576   -2.9163   O.3
      7  C2'   -5.4153    7.4465   -1.1493   C.3
      8  O2'   -4.6073    7.8821   -2.2267   O.3
      9  C1'   -5.6817    8.7072   -0.2833   C.3
     10   N1   -5.6693    8.2446    1.1566 N.pl3
     11   C2   -4.4693    8.1812    1.7531   C.2
     12   O2   -3.4162    8.5340    1.2730   O.2
     13   N3   -4.5722    7.7811    3.0420 N.pl3
     14   C4   -5.6983    7.3540    3.7217   C.2
     15   O4   -5.5825    6.9222    4.8615   O.2
     16   C5   -6.9088    7.4210    2.9678   C.2
     17   C6   -6.8542    7.8829    1.7213   C.2
     18    V   -4.9472    6.6998   -3.6473   P.3
     19  O1V   -4.5068    7.7762   -4.9489   O.3
     20  O2V   -5.7364    5.6683   -5.0494   O.3
     21  O3V   -3.6492    5.5457   -3.4589   O.3
     22   H1   -9.9162    7.0552   -0.2646     H
     23  H21   -9.4429    9.1558   -1.7642     H
     24  H22   -9.3877    7.5802   -2.1013     H
     25   H3   -7.0788    8.7045   -2.3944     H
     26   H5   -7.4448    6.2250   -1.3148     H
     27   H7   -4.9763    6.6300   -0.6835     H
     28   H9   -5.0289    9.4336   -0.4601     H
     29  H13   -3.6802    7.7344    3.5690     H
     30  H16   -7.7538    7.1242    3.4429     H
     31  H17   -7.7049    7.9193    1.1548     H
@<TRIPOS>BOND
      1     1    22 1
      2     2     3 1
      3     2    23 1
      4     2    24 1
      5     3     4 1
      6     3     5 1
      7     3    23 1
      8     3    24 1
      9     3    25 1
     10     3    26 1
     11     3    31 1
     12     4     9 1
     13     4    25 1
     14     4    28 1
     15     4    31 1
     16     5     6 1
     17     5     7 1
     18     5    25 1
     19     5    26 1
     20     5    27 1
     21     6    20 1
     22     6    26 1
     23     7     8 1
     24     7    27 1
     25     8    19 1
     26     9    28 1
     27    10    11 1
     28    10    17 1
     29    10    31 1
     30    11    12 1
     31    11    13 1
     32    11    14 1
     33    11    16 1
     34    11    17 1
     35    11    28 1
     36    11    29 1
     37    12    13 1
     38    12    28 1
     39    12    29 1
     40    13    14 1
     41    13    15 1
     42    13    16 1
     43    13    29 1
     44    14    15 1
     45    14    16 1
     46    14    29 1
     47    14    30 1
     48    15    29 1
     49    16    17 1
     50    16    30 1
     51    16    31 1
     52    17    30 1
     53    17    31 1
     54    18    19 1
     55    18    20 1
     56    18    21 1
     57    19    20 1
     58    19    21 1
     59    20    21 1
     60    22    23 1
     61    22    24 1
     62    22    31 1
     63    23    24 1
     64    23    25 1
     65    24    25 1
     66    24    26 1
     67    30    31 1
