@<TRIPOS>ATOM
      1  O5'   -8.7290    6.9626    0.6778   O.3
      2  C5'   -8.3736    7.3735   -0.6439   C.3
      3  C4'   -6.8722    7.3443   -0.6910   C.3
      4  O4'   -6.4648    8.1020    0.4952   O.3
      5  C3'   -6.1244    5.9808   -0.7261   C.3
      6  O3'   -6.0116    5.3105   -2.0308   O.3
      7  C2'   -4.7868    6.4994   -0.2638   C.3
      8  O2'   -3.9788    6.9350   -1.3412   O.3
      9  C1'   -5.0532    7.7601    0.6022   C.3
     10   N1   -5.0408    7.2975    2.0421 N.pl3
     11   C2   -3.8408    7.2341    2.6386   C.2
     12   O2   -2.7877    7.5869    2.1585   O.2
     13   N3   -3.9437    6.8340    3.9275 N.pl3
     14   C4   -5.0698    6.4069    4.6072   C.2
     15   O4   -4.9540    5.9751    5.7470   O.2
     16   C5   -6.2803    6.4739    3.8533   C.2
     17   C6   -6.2257    6.9358    2.6068   C.2
     18    V   -4.3187    5.7527   -2.7618   P.3
     19  O1V   -3.8783    6.8291   -4.0634   O.3
     20  O2V   -5.1079    4.7212   -4.1639   O.3
     21  O3V   -3.0207    4.5986   -2.5734   O.3
     22   H1   -9.2877    6.1081    0.6209     H
     23  H21   -8.8144    8.2087   -0.8787     H
     24  H22   -8.7592    6.6331   -1.2158     H
     25   H3   -6.4503    7.7574   -1.5089     H
     26   H5   -6.8163    5.2779   -0.4293     H
     27   H7   -4.3478    5.6829    0.2020     H
     28   H9   -4.4004    8.4865    0.4254     H
     29  H13   -3.0517    6.7873    4.4545     H
     30  H16   -7.1253    6.1771    4.3284     H
     31  H17   -7.0764    6.9722    2.0403     H
@<TRIPOS>BOND
      1     1    22 1
      2     2     3 1
      3     2    23 1
      4     2    24 1
      5     3     4 1
      6     3     5 1
      7     3    23 1
      8     3    24 1
      9     3    25 1
     10     3    26 1
     11     3    31 1
     12     4     9 1
     13     4    25 1
     14     4    28 1
     15     4    31 1
     16     5     6 1
     17     5     7 1
     18     5    25 1
     19     5    26 1
     20     5    27 1
     21     6    20 1
     22     6    26 1
     23     7     8 1
     24     7    27 1
     25     8    19 1
     26     9    28 1
     27    10    11 1
     28    10    17 1
     29    10    31 1
     30    11    12 1
     31    11    13 1
     32    11    14 1
     33    11    16 1
     34    11    17 1
     35    11    28 1
     36    11    29 1
     37    12    13 1
     38    12    28 1
     39    12    29 1
     40    13    14 1
     41    13    15 1
     42    13    16 1
     43    13    29 1
     44    14    15 1
     45    14    16 1
     46    14    29 1
     47    14    30 1
     48    15    29 1
     49    16    17 1
     50    16    30 1
     51    16    31 1
     52    17    30 1
     53    17    31 1
     54    18    19 1
     55    18    20 1
     56    18    21 1
     57    19    20 1
     58    19    21 1
     59    20    21 1
     60    22    23 1
     61    22    24 1
     62    22    31 1
     63    23    24 1
     64    23    25 1
     65    24    25 1
     66    24    26 1
     67    30    31 1
