@<TRIPOS>ATOM
      1  O5'   -9.9703    8.2797   -0.3039   O.3
      2  C5'   -9.6149    8.6906   -1.6256   C.3
      3  C4'   -8.1135    8.6614   -1.6727   C.3
      4  O4'   -7.7061    9.4191   -0.4865   O.3
      5  C3'   -7.3657    7.2979   -1.7078   C.3
      6  O3'   -7.2529    6.6276   -3.0125   O.3
      7  C2'   -6.0281    7.8165   -1.2455   C.3
      8  O2'   -5.2201    8.2521   -2.3229   O.3
      9  C1'   -6.2945    9.0772   -0.3795   C.3
     10   N1   -6.2821    8.6146    1.0604 N.pl3
     11   C2   -5.0821    8.5512    1.6569   C.2
     12   O2   -4.0290    8.9040    1.1768   O.2
     13   N3   -5.1850    8.1511    2.9458 N.pl3
     14   C4   -6.3111    7.7240    3.6255   C.2
     15   O4   -6.1953    7.2922    4.7653   O.2
     16   C5   -7.5216    7.7910    2.8716   C.2
     17   C6   -7.4670    8.2529    1.6251   C.2
     18    V   -5.5600    7.0698   -3.7435   P.3
     19  O1V   -5.1196    8.1462   -5.0451   O.3
     20  O2V   -6.3492    6.0383   -5.1456   O.3
     21  O3V   -4.2620    5.9157   -3.5551   O.3
     22   H1  -10.5290    7.4252   -0.3608     H
     23  H21  -10.0557    9.5258   -1.8604     H
     24  H22  -10.0005    7.9502   -2.1975     H
     25   H3   -7.6916    9.0745   -2.4906     H
     26   H5   -8.0576    6.5950   -1.4110     H
     27   H7   -5.5891    7.0000   -0.7797     H
     28   H9   -5.6417    9.8036   -0.5563     H
     29  H13   -4.2930    8.1044    3.4728     H
     30  H16   -8.3666    7.4942    3.3467     H
     31  H17   -8.3177    8.2893    1.0586     H
@<TRIPOS>BOND
      1     1    22 1
      2     2     3 1
      3     2    23 1
      4     2    24 1
      5     3     4 1
      6     3     5 1
      7     3    23 1
      8     3    24 1
      9     3    25 1
     10     3    26 1
     11     3    31 1
     12     4     9 1
     13     4    25 1
     14     4    28 1
     15     4    31 1
     16     5     6 1
     17     5     7 1
     18     5    25 1
     19     5    26 1
     20     5    27 1
     21     6    20 1
     22     6    26 1
     23     7     8 1
     24     7    27 1
     25     8    19 1
     26     9    28 1
     27    10    11 1
     28    10    17 1
     29    10    31 1
     30    11    12 1
     31    11    13 1
     32    11    14 1
     33    11    16 1
     34    11    17 1
     35    11    28 1
     36    11    29 1
     37    12    13 1
     38    12    28 1
     39    12    29 1
     40    13    14 1
     41    13    15 1
     42    13    16 1
     43    13    29 1
     44    14    15 1
     45    14    16 1
     46    14    29 1
     47    14    30 1
     48    15    29 1
     49    16    17 1
     50    16    30 1
     51    16    31 1
     52    17    30 1
     53    17    31 1
     54    18    19 1
     55    18    20 1
     56    18    21 1
     57    19    20 1
     58    19    21 1
     59    20    21 1
     60    22    23 1
     61    22    24 1
     62    22    31 1
     63    23    24 1
     64    23    25 1
     65    24    25 1
     66    24    26 1
     67    30    31 1
