@<TRIPOS>ATOM
      1  O5'   -9.3571    7.9089   -0.2081   O.3
      2  C5'   -9.0017    8.3198   -1.5298   C.3
      3  C4'   -7.5003    8.2906   -1.5769   C.3
      4  O4'   -7.0929    9.0483   -0.3907   O.3
      5  C3'   -6.7525    6.9271   -1.6120   C.3
      6  O3'   -6.6397    6.2568   -2.9167   O.3
      7  C2'   -5.4149    7.4457   -1.1497   C.3
      8  O2'   -4.6069    7.8813   -2.2271   O.3
      9  C1'   -5.6813    8.7064   -0.2837   C.3
     10   N1   -5.6689    8.2438    1.1562 N.pl3
     11   C2   -4.4689    8.1804    1.7527   C.2
     12   O2   -3.4158    8.5332    1.2726   O.2
     13   N3   -4.5718    7.7803    3.0416 N.pl3
     14   C4   -5.6979    7.3532    3.7213   C.2
     15   O4   -5.5821    6.9214    4.8611   O.2
     16   C5   -6.9084    7.4202    2.9674   C.2
     17   C6   -6.8538    7.8821    1.7209   C.2
     18    V   -4.9468    6.6990   -3.6477   P.3
     19  O1V   -4.5064    7.7754   -4.9493   O.3
     20  O2V   -5.7360    5.6675   -5.0498   O.3
     21  O3V   -3.6488    5.5449   -3.4593   O.3
     22   H1   -9.9158    7.0544   -0.2650     H
     23  H21   -9.4425    9.1550   -1.7646     H
     24  H22   -9.3873    7.5794   -2.1017     H
     25   H3   -7.0784    8.7037   -2.3948     H
     26   H5   -7.4444    6.2242   -1.3152     H
     27   H7   -4.9759    6.6292   -0.6839     H
     28   H9   -5.0285    9.4328   -0.4605     H
     29  H13   -3.6798    7.7336    3.5686     H
     30  H16   -7.7534    7.1234    3.4425     H
     31  H17   -7.7045    7.9185    1.1544     H
@<TRIPOS>BOND
      1     1    22 1
      2     2     3 1
      3     2    23 1
      4     2    24 1
      5     3     4 1
      6     3     5 1
      7     3    23 1
      8     3    24 1
      9     3    25 1
     10     3    26 1
     11     3    31 1
     12     4     9 1
     13     4    25 1
     14     4    28 1
     15     4    31 1
     16     5     6 1
     17     5     7 1
     18     5    25 1
     19     5    26 1
     20     5    27 1
     21     6    20 1
     22     6    26 1
     23     7     8 1
     24     7    27 1
     25     8    19 1
     26     9    28 1
     27    10    11 1
     28    10    17 1
     29    10    31 1
     30    11    12 1
     31    11    13 1
     32    11    14 1
     33    11    16 1
     34    11    17 1
     35    11    28 1
     36    11    29 1
     37    12    13 1
     38    12    28 1
     39    12    29 1
     40    13    14 1
     41    13    15 1
     42    13    16 1
     43    13    29 1
     44    14    15 1
     45    14    16 1
     46    14    29 1
     47    14    30 1
     48    15    29 1
     49    16    17 1
     50    16    30 1
     51    16    31 1
     52    17    30 1
     53    17    31 1
     54    18    19 1
     55    18    20 1
     56    18    21 1
     57    19    20 1
     58    19    21 1
     59    20    21 1
     60    22    23 1
     61    22    24 1
     62    22    31 1
     63    23    24 1
     64    23    25 1
     65    24    25 1
     66    24    26 1
     67    30    31 1
