@<TRIPOS>ATOM
      1  O5'   -9.3563    7.9077   -0.2087   O.3
      2  C5'   -9.0009    8.3186   -1.5304   C.3
      3  C4'   -7.4995    8.2894   -1.5775   C.3
      4  O4'   -7.0921    9.0471   -0.3913   O.3
      5  C3'   -6.7517    6.9259   -1.6126   C.3
      6  O3'   -6.6389    6.2556   -2.9173   O.3
      7  C2'   -5.4141    7.4445   -1.1503   C.3
      8  O2'   -4.6061    7.8801   -2.2277   O.3
      9  C1'   -5.6805    8.7052   -0.2843   C.3
     10   N1   -5.6681    8.2426    1.1556 N.pl3
     11   C2   -4.4681    8.1792    1.7521   C.2
     12   O2   -3.4150    8.5320    1.2720   O.2
     13   N3   -4.5710    7.7791    3.0410 N.pl3
     14   C4   -5.6971    7.3520    3.7207   C.2
     15   O4   -5.5813    6.9202    4.8605   O.2
     16   C5   -6.9076    7.4190    2.9668   C.2
     17   C6   -6.8530    7.8809    1.7203   C.2
     18    V   -4.9460    6.6978   -3.6483   P.3
     19  O1V   -4.5056    7.7742   -4.9499   O.3
     20  O2V   -5.7352    5.6663   -5.0504   O.3
     21  O3V   -3.6480    5.5437   -3.4599   O.3
     22   H1   -9.9150    7.0532   -0.2656     H
     23  H21   -9.4417    9.1538   -1.7652     H
     24  H22   -9.3865    7.5782   -2.1023     H
     25   H3   -7.0776    8.7025   -2.3954     H
     26   H5   -7.4436    6.2230   -1.3158     H
     27   H7   -4.9751    6.6280   -0.6845     H
     28   H9   -5.0277    9.4316   -0.4611     H
     29  H13   -3.6790    7.7324    3.5680     H
     30  H16   -7.7526    7.1222    3.4419     H
     31  H17   -7.7037    7.9173    1.1538     H
@<TRIPOS>BOND
      1     1    22 1
      2     2     3 1
      3     2    23 1
      4     2    24 1
      5     3     4 1
      6     3     5 1
      7     3    23 1
      8     3    24 1
      9     3    25 1
     10     3    26 1
     11     3    31 1
     12     4     9 1
     13     4    25 1
     14     4    28 1
     15     4    31 1
     16     5     6 1
     17     5     7 1
     18     5    25 1
     19     5    26 1
     20     5    27 1
     21     6    20 1
     22     6    26 1
     23     7     8 1
     24     7    27 1
     25     8    19 1
     26     9    28 1
     27    10    11 1
     28    10    17 1
     29    10    31 1
     30    11    12 1
     31    11    13 1
     32    11    14 1
     33    11    16 1
     34    11    17 1
     35    11    28 1
     36    11    29 1
     37    12    13 1
     38    12    28 1
     39    12    29 1
     40    13    14 1
     41    13    15 1
     42    13    16 1
     43    13    29 1
     44    14    15 1
     45    14    16 1
     46    14    29 1
     47    14    30 1
     48    15    29 1
     49    16    17 1
     50    16    30 1
     51    16    31 1
     52    17    30 1
     53    17    31 1
     54    18    19 1
     55    18    20 1
     56    18    21 1
     57    19    20 1
     58    19    21 1
     59    20    21 1
     60    22    23 1
     61    22    24 1
     62    22    31 1
     63    23    24 1
     64    23    25 1
     65    24    25 1
     66    24    26 1
     67    30    31 1
