@<TRIPOS>ATOM
      1  O5'   -9.3585    7.9108   -0.2072   O.3
      2  C5'   -9.0031    8.3217   -1.5289   C.3
      3  C4'   -7.5017    8.2925   -1.5760   C.3
      4  O4'   -7.0943    9.0502   -0.3898   O.3
      5  C3'   -6.7539    6.9290   -1.6111   C.3
      6  O3'   -6.6411    6.2587   -2.9158   O.3
      7  C2'   -5.4163    7.4476   -1.1488   C.3
      8  O2'   -4.6083    7.8832   -2.2262   O.3
      9  C1'   -5.6827    8.7083   -0.2828   C.3
     10   N1   -5.6703    8.2457    1.1571 N.pl3
     11   C2   -4.4703    8.1823    1.7536   C.2
     12   O2   -3.4172    8.5351    1.2735   O.2
     13   N3   -4.5732    7.7822    3.0425 N.pl3
     14   C4   -5.6993    7.3551    3.7222   C.2
     15   O4   -5.5835    6.9233    4.8620   O.2
     16   C5   -6.9098    7.4221    2.9683   C.2
     17   C6   -6.8552    7.8840    1.7218   C.2
     18    V   -4.9482    6.7009   -3.6468   P.3
     19  O1V   -4.5078    7.7773   -4.9484   O.3
     20  O2V   -5.7374    5.6694   -5.0489   O.3
     21  O3V   -3.6502    5.5468   -3.4584   O.3
     22   H1   -9.9172    7.0563   -0.2641     H
     23  H21   -9.4439    9.1569   -1.7637     H
     24  H22   -9.3887    7.5813   -2.1008     H
     25   H3   -7.0798    8.7056   -2.3939     H
     26   H5   -7.4458    6.2261   -1.3143     H
     27   H7   -4.9773    6.6311   -0.6830     H
     28   H9   -5.0299    9.4347   -0.4596     H
     29  H13   -3.6812    7.7355    3.5695     H
     30  H16   -7.7548    7.1253    3.4434     H
     31  H17   -7.7059    7.9204    1.1553     H
@<TRIPOS>BOND
      1     1    22 1
      2     2     3 1
      3     2    23 1
      4     2    24 1
      5     3     4 1
      6     3     5 1
      7     3    23 1
      8     3    24 1
      9     3    25 1
     10     3    26 1
     11     3    31 1
     12     4     9 1
     13     4    25 1
     14     4    28 1
     15     4    31 1
     16     5     6 1
     17     5     7 1
     18     5    25 1
     19     5    26 1
     20     5    27 1
     21     6    20 1
     22     6    26 1
     23     7     8 1
     24     7    27 1
     25     8    19 1
     26     9    28 1
     27    10    11 1
     28    10    17 1
     29    10    31 1
     30    11    12 1
     31    11    13 1
     32    11    14 1
     33    11    16 1
     34    11    17 1
     35    11    28 1
     36    11    29 1
     37    12    13 1
     38    12    28 1
     39    12    29 1
     40    13    14 1
     41    13    15 1
     42    13    16 1
     43    13    29 1
     44    14    15 1
     45    14    16 1
     46    14    29 1
     47    14    30 1
     48    15    29 1
     49    16    17 1
     50    16    30 1
     51    16    31 1
     52    17    30 1
     53    17    31 1
     54    18    19 1
     55    18    20 1
     56    18    21 1
     57    19    20 1
     58    19    21 1
     59    20    21 1
     60    22    23 1
     61    22    24 1
     62    22    31 1
     63    23    24 1
     64    23    25 1
     65    24    25 1
     66    24    26 1
     67    30    31 1
